@<TRIPOS>MOLECULE
LFE
  145   152     1     0     0
SMALL
bcc


@<TRIPOS>ATOM
      1 CAW         22.1520   -29.4960   -17.9900 c3       301 LFE       0.073700
      2 C13         20.7280   -26.7870   -17.7680 c3       301 LFE       0.116400
      3 C17         17.3280   -22.8820   -14.2670 c3       301 LFE       0.125400
      4 CAY         22.4430   -29.7510   -14.0820 c3       301 LFE       0.095400
      5 CAZ         22.0070   -28.9110   -12.8410 c3       301 LFE       0.087400
      6 CBA         24.4900   -28.8090   -12.1000 c3       301 LFE       0.086400
      7 CBT         26.7860   -25.9190   -13.3060 c        301 LFE       0.629100
      8 CAB         22.2640   -38.6000   -14.2810 c3       301 LFE      -0.125400
      9 CCB         21.9540   -37.4330   -15.2530 cc       301 LFE       0.382800
     10 NBJ         21.7080   -37.5740   -16.5930 nd       301 LFE      -0.340000
     11 NBK         21.4660   -36.2830   -17.1540 nd       301 LFE      -0.327000
     12 CCG         21.5690   -35.4120   -16.1640 cc       301 LFE       0.358800
     13 CCL         21.3960   -33.7730   -16.2280 c3       301 LFE       0.115200
     14 CBE         21.3060   -33.2830   -17.6950 c3       301 LFE      -0.130400
     15 CBU         20.9170   -31.7260   -17.8140 c        301 LFE       0.655100
     16 NBL         21.8080   -30.8860   -18.5110 ns       301 LFE      -0.550900
     17 C11         22.8850   -28.7040   -19.1030 c3       301 LFE       0.110400
     18 O12         22.0760   -27.2670   -18.6940 os       301 LFE      -0.427600
     19 C14         20.1080   -25.1820   -17.3020 c3       301 LFE       0.099400
     20 O15         19.1060   -24.7210   -16.0480 os       301 LFE      -0.421600
     21 C16         18.4130   -23.2610   -15.6170 c3       301 LFE       0.127400
     22 O18         16.8920   -21.4680   -13.4480 os       301 LFE      -0.333900
     23 CAX         22.7900   -29.6740   -16.5890 c3       301 LFE       0.108400
     24 OBO         21.8910   -29.4500   -15.4130 os       301 LFE      -0.432600
     25 OBP         23.1320   -28.2520   -12.1230 os       301 LFE      -0.413600
     26 CBB         25.3820   -28.2370   -10.9510 c3       301 LFE       0.093400
     27 OBQ         26.0270   -26.9570   -11.2290 os       301 LFE      -0.403600
     28 CBD         27.1750   -26.8410   -12.1370 c3       301 LFE       0.055400
     29 NBN         25.4760   -25.9050   -13.6230 ns       301 LFE      -0.544900
     30 CCN         24.8900   -25.0560   -14.6780 c3       301 LFE       0.057700
     31 CCQ         24.1110   -25.9030   -15.7230 c3       301 LFE      -0.046000
     32 CAE         23.4800   -24.9760   -16.7770 c3       301 LFE      -0.101100
     33 CAG         23.0140   -26.7880   -15.0750 c3       301 LFE      -0.101100
     34 CAF         25.0810   -26.8520   -16.4370 c3       301 LFE      -0.101100
     35 CBW         23.9960   -24.0370   -13.9140 c        301 LFE       0.648100
     36 N           24.0100   -22.7350   -14.2760 n        301 LFE      -0.453800
     37 CD2         24.7650   -21.9870   -15.3300 c3       301 LFE       0.074000
     38 CG          24.8320   -20.5470   -14.8050 c3       301 LFE       0.130100
     39 OD1         25.9010   -20.3620   -13.8650 oh       301 LFE      -0.591800
     40 CB          23.5310   -20.3670   -14.0900 c3       301 LFE      -0.126400
     41 CA          23.1830   -21.7310   -13.4770 c3       301 LFE       0.031700
     42 C           21.7840   -21.9100   -13.5570 c        301 LFE       0.649100
     43 NBM         21.0400   -21.4740   -12.5120 ns       301 LFE      -0.548900
     44 CBC         19.5770   -21.5500   -12.5430 c3       301 LFE       0.136300
     45 CCA         18.9870   -20.2730   -12.9620 ca       301 LFE      -0.133300
     46 CAP         17.6640   -20.3020   -13.4130 ca       301 LFE       0.141100
     47 CAT         17.0930   -19.0710   -13.7280 ca       301 LFE      -0.199000
     48 CCF         17.8400   -17.8860   -13.6700 ca       301 LFE       0.027000
     49 CCH         17.2190   -16.6320   -13.9660 cc       301 LFE      -0.145400
     50 CBZ         16.0070   -16.1920   -13.5630 cd       301 LFE       0.359600
     51 CAA         15.0370   -16.9530   -12.6520 c3       301 LFE      -0.129400
     52 NBI         15.6460   -14.9860   -14.0340 nd       301 LFE      -0.628000
     53 CAV         16.5470   -14.4000   -14.8300 cc       301 LFE       0.369300
     54 SBR         17.8580   -15.4180   -14.9600 ss       301 LFE      -0.099300
     55 CAU         19.1670   -17.8810   -13.2620 ca       301 LFE      -0.146000
     56 CAQ         19.7440   -19.0840   -12.8900 ca       301 LFE      -0.090000
     57 O           21.2850   -22.3520   -14.5850 o        301 LFE      -0.630100
     58 OAK         23.3170   -24.4240   -12.9690 o        301 LFE      -0.625100
     59 OAH         27.6640   -25.3190   -13.9140 o        301 LFE      -0.628100
     60 OAI         20.4130   -31.1630   -16.8860 o        301 LFE      -0.625100
     61 NBH         22.4730   -33.1180   -15.6160 n2       301 LFE      -0.594900
     62 CBX         23.2880   -33.5720   -14.5720 ce       301 LFE       0.566500
     63 CCE         24.6650   -32.9100   -14.3410 ca       301 LFE      -0.136900
     64 CAS         24.8760   -31.5520   -14.7180 ca       301 LFE      -0.092000
     65 CAO         26.1210   -30.9600   -14.5040 ca       301 LFE      -0.135000
     66 CBY         27.1490   -31.6770   -13.9280 ca       301 LFE       0.027400
     67 CL1         28.7280   -30.9070   -13.6630 cl       301 LFE      -0.090400
     68 CAN         26.9400   -33.0350   -13.5490 ca       301 LFE      -0.135000
     69 CAR         25.6940   -33.6340   -13.7620 ca       301 LFE      -0.092000
     70 CCI         22.6710   -34.3080   -13.4930 cc       301 LFE      -0.213900
     71 CCJ         22.0500   -35.4540   -13.7220 cd       301 LFE      -0.017300
     72 SBS         21.3850   -36.1450   -12.3460 ss       301 LFE       0.066200
     73 CCC         21.8490   -35.0460   -11.2860 cd       301 LFE      -0.119400
     74 CAC         21.5410   -35.1180    -9.7850 c3       301 LFE      -0.025800
     75 CCD         22.5820   -33.9990   -11.9570 cc       301 LFE      -0.058300
     76 CAD         23.2010   -32.7570   -11.3060 c3       301 LFE      -0.041800
     77 NCP         21.8730   -36.0810   -14.9570 na       301 LFE      -0.238800
     78 HAW         21.1560   -29.0890   -17.8390 h1       301 LFE       0.069700
     79 H132        20.7640   -27.3260   -16.8190 h1       301 LFE       0.070700
     80 H133        19.8720   -27.2470   -18.2760 h1       301 LFE       0.070700
     81 H172        16.3720   -23.3240   -14.5730 h1       301 LFE       0.055700
     82 H173        17.6660   -23.5630   -13.4760 h1       301 LFE       0.055700
     83 HAY2        23.4980   -29.5270   -14.1550 h1       301 LFE       0.053700
     84 HAY3        22.3170   -30.8170   -13.8580 h1       301 LFE       0.053700
     85 HAZ2        21.4870   -29.5810   -12.1450 h1       301 LFE       0.064700
     86 HAZ3        21.2830   -28.1480   -13.1560 h1       301 LFE       0.064700
     87 HBA2        25.0000   -28.6320   -13.0540 h1       301 LFE       0.058200
     88 HBA3        24.4220   -29.8930   -11.9520 h1       301 LFE       0.058200
     89 HAB1        22.5710   -39.4770   -14.8510 hc       301 LFE       0.066367
     90 HAB2        23.0680   -38.3060   -13.6060 hc       301 LFE       0.066367
     91 HAB3        21.3720   -38.8370   -13.7020 hc       301 LFE       0.066367
     92 HCL         20.4780   -33.4970   -15.7100 h1       301 LFE       0.081700
     93 HBE2        20.5480   -33.8710   -18.2120 hc       301 LFE       0.094700
     94 HBE3        22.2690   -33.4440   -18.1800 hc       301 LFE       0.094700
     95 HBL         22.4530   -31.3230   -19.1570 hn       301 LFE       0.332500
     96 H112        23.9720   -28.6570   -18.9690 h1       301 LFE       0.066700
     97 H113        22.6000   -29.0440   -20.1070 h1       301 LFE       0.066700
     98 H142        20.9690   -24.5190   -17.2390 h1       301 LFE       0.038700
     99 H143        19.5920   -24.8380   -18.2070 h1       301 LFE       0.038700
    100 H162        17.8460   -22.9500   -16.5020 h1       301 LFE       0.045200
    101 H163        19.2170   -22.5270   -15.5650 h1       301 LFE       0.045200
    102 HAX2        23.7200   -29.1170   -16.4920 h1       301 LFE       0.056700
    103 HAX3        23.0560   -30.7270   -16.6390 h1       301 LFE       0.056700
    104 HBB2        24.7500   -28.1270   -10.0610 h1       301 LFE       0.058700
    105 HBB3        26.1560   -28.9760   -10.7050 h1       301 LFE       0.058700
    106 HBD2        27.4570   -27.8200   -12.5440 h1       301 LFE       0.082700
    107 HBD3        28.0330   -26.4010   -11.6140 h1       301 LFE       0.082700
    108 HBN         24.8570   -26.5130   -13.1070 hn       301 LFE       0.350500
    109 HCN         25.6910   -24.5160   -15.1850 h1       301 LFE       0.094700
    110 HAE1        22.7850   -24.2910   -16.2910 hc       301 LFE       0.045589
    111 HAE2        22.9440   -25.5750   -17.5130 hc       301 LFE       0.045589
    112 HAE3        24.2640   -24.4050   -17.2750 hc       301 LFE       0.045589
    113 HAG1        22.2960   -26.1550   -14.5520 hc       301 LFE       0.045589
    114 HAG2        22.5000   -27.3560   -15.8500 hc       301 LFE       0.045589
    115 HAG3        23.4740   -27.4770   -14.3660 hc       301 LFE       0.045589
    116 HAF1        25.8740   -26.2730   -16.9110 hc       301 LFE       0.045589
    117 HAF2        24.5420   -27.4190   -17.1960 hc       301 LFE       0.045589
    118 HAF3        25.5170   -27.5390   -15.7120 hc       301 LFE       0.045589
    119 HD22        25.7670   -22.4000   -15.4510 h1       301 LFE       0.079200
    120 HD23        24.2260   -22.0200   -16.2760 h1       301 LFE       0.079200
    121 HG          24.9180   -19.8410   -15.6310 h1       301 LFE       0.053700
    122 HD1         26.4770   -19.6570   -14.1710 ho       301 LFE       0.403000
    123 HB2         23.6330   -19.6160   -13.3060 hc       301 LFE       0.079700
    124 HB3         22.7570   -20.0670   -14.7950 hc       301 LFE       0.079700
    125 HA          23.4940   -21.7520   -12.4320 h1       301 LFE       0.087700
    126 HBM         21.5010   -21.0910   -11.6980 hn       301 LFE       0.337500
    127 HBC2        19.2100   -21.8450   -11.5600 h1       301 LFE       0.076200
    128 HBC3        19.2700   -22.2920   -13.2810 h1       301 LFE       0.076200
    129 HAT         16.0590   -19.0160   -13.9870 ha       301 LFE       0.140000
    130 HAA1        14.2860   -16.2640   -12.2640 hc       301 LFE       0.056033
    131 HAA2        14.5460   -17.7410   -13.2220 hc       301 LFE       0.056033
    132 HAA3        15.5880   -17.3940   -11.8220 hc       301 LFE       0.056033
    133 HAV         16.4420   -13.4360   -15.3060 h5       301 LFE       0.054100
    134 HAU         19.7120   -16.9470   -13.1840 ha       301 LFE       0.141000
    135 HAQ         20.7730   -19.0760   -12.5390 ha       301 LFE       0.160000
    136 HAS         24.0750   -30.9830   -15.1680 ha       301 LFE       0.157500
    137 HAO         26.2810   -29.9310   -14.7920 ha       301 LFE       0.147500
    138 HAN         27.7420   -33.6000   -13.0980 ha       301 LFE       0.147500
    139 HAR         25.5340   -34.6630   -13.4750 ha       301 LFE       0.157500
    140 HAC1        20.9710   -36.0230    -9.5740 hc       301 LFE       0.054033
    141 HAC2        20.9590   -34.2450    -9.4920 hc       301 LFE       0.054033
    142 HAC3        22.4750   -35.1380    -9.2230 hc       301 LFE       0.054033
    143 HAD1        23.6910   -32.1520   -12.0690 hc       301 LFE       0.054367
    144 HAD2        22.4180   -32.1700   -10.8260 hc       301 LFE       0.054367
    145 HAD3        23.9340   -33.0650   -10.5600 hc       301 LFE       0.054367
@<TRIPOS>BOND
     1     1    16 1   
     2     1    17 1   
     3     1    23 1   
     4     1    78 1   
     5     2    18 1   
     6     2    19 1   
     7     2    79 1   
     8     2    80 1   
     9     3    21 1   
    10     3    22 1   
    11     3    81 1   
    12     3    82 1   
    13     4     5 1   
    14     4    24 1   
    15     4    83 1   
    16     4    84 1   
    17     5    25 1   
    18     5    85 1   
    19     5    86 1   
    20     6    25 1   
    21     6    26 1   
    22     6    87 1   
    23     6    88 1   
    24     7    28 1   
    25     7    29 1   
    26     7    59 2   
    27     8     9 1   
    28     8    89 1   
    29     8    90 1   
    30     8    91 1   
    31     9    10 2   
    32     9    77 1   
    33    10    11 1   
    34    11    12 2   
    35    12    13 1   
    36    12    77 1   
    37    13    14 1   
    38    13    61 1   
    39    13    92 1   
    40    14    15 1   
    41    14    93 1   
    42    14    94 1   
    43    15    16 1   
    44    15    60 2   
    45    16    95 1   
    46    17    18 1   
    47    17    96 1   
    48    17    97 1   
    49    19    20 1   
    50    19    98 1   
    51    19    99 1   
    52    20    21 1   
    53    21   100 1   
    54    21   101 1   
    55    22    46 1   
    56    23    24 1   
    57    23   102 1   
    58    23   103 1   
    59    26    27 1   
    60    26   104 1   
    61    26   105 1   
    62    27    28 1   
    63    28   106 1   
    64    28   107 1   
    65    29    30 1   
    66    29   108 1   
    67    30    31 1   
    68    30    35 1   
    69    30   109 1   
    70    31    32 1   
    71    31    33 1   
    72    31    34 1   
    73    32   110 1   
    74    32   111 1   
    75    32   112 1   
    76    33   113 1   
    77    33   114 1   
    78    33   115 1   
    79    34   116 1   
    80    34   117 1   
    81    34   118 1   
    82    35    36 1   
    83    35    58 2   
    84    36    37 1   
    85    36    41 1   
    86    37    38 1   
    87    37   119 1   
    88    37   120 1   
    89    38    39 1   
    90    38    40 1   
    91    38   121 1   
    92    39   122 1   
    93    40    41 1   
    94    40   123 1   
    95    40   124 1   
    96    41    42 1   
    97    41   125 1   
    98    42    43 1   
    99    42    57 2   
   100    43    44 1   
   101    43   126 1   
   102    44    45 1   
   103    44   127 1   
   104    44   128 1   
   105    45    46 ar  
   106    45    56 ar  
   107    46    47 ar  
   108    47    48 ar  
   109    47   129 1   
   110    48    49 1   
   111    48    55 ar  
   112    49    50 2   
   113    49    54 1   
   114    50    51 1   
   115    50    52 1   
   116    51   130 1   
   117    51   131 1   
   118    51   132 1   
   119    52    53 2   
   120    53    54 1   
   121    53   133 1   
   122    55    56 ar  
   123    55   134 1   
   124    56   135 1   
   125    61    62 2   
   126    62    63 1   
   127    62    70 1   
   128    63    64 ar  
   129    63    69 ar  
   130    64    65 ar  
   131    64   136 1   
   132    65    66 ar  
   133    65   137 1   
   134    66    67 1   
   135    66    68 ar  
   136    68    69 ar  
   137    68   138 1   
   138    69   139 1   
   139    70    71 2   
   140    70    75 1   
   141    71    72 1   
   142    71    77 1   
   143    72    73 1   
   144    73    74 1   
   145    73    75 2   
   146    74   140 1   
   147    74   141 1   
   148    74   142 1   
   149    75    76 1   
   150    76   143 1   
   151    76   144 1   
   152    76   145 1   
@<TRIPOS>SUBSTRUCTURE
     1 LFE         1 TEMP              0 ****  ****    0 ROOT
