@<TRIPOS>MOLECULE
UNL
  104   110     1     0     0
SMALL
gas


@<TRIPOS>ATOM
      1 O           70.2650    42.3460    47.6430 os         1 UNL      -0.335670
      2 C           70.7770    41.3090    47.1480 c3         1 UNL       0.129859
      3 C1          70.6350    40.9560    45.7390 c          1 UNL       0.238195
      4 O1          69.6560    41.3700    45.0620 o          1 UNL      -0.275031
      5 N           71.5780    40.1260    45.0290 ns         1 UNL      -0.313412
      6 C2          71.3440    39.7600    43.6560 c3         1 UNL       0.011021
      7 C3          72.4490    39.0330    42.9910 c3         1 UNL      -0.037585
      8 C4          73.0010    37.8860    43.6690 c3         1 UNL      -0.051820
      9 C5          72.0810    36.8070    44.0790 c3         1 UNL      -0.053249
     10 C6          72.9380    35.8090    44.8620 c3         1 UNL      -0.053249
     11 C7          73.9780    35.1950    43.9040 c3         1 UNL      -0.051820
     12 C8          74.9160    34.3790    44.8520 c3         1 UNL      -0.037586
     13 C9          73.9930    33.4710    45.6190 c3         1 UNL       0.010936
     14 N1          74.5990    32.8110    46.6400 ns         1 UNL      -0.315355
     15 C10         75.5440    31.8760    46.8640 c          1 UNL       0.214248
     16 O2          76.1270    31.3100    45.8810 o          1 UNL      -0.277652
     17 C11         75.9050    31.5030    48.2900 c3         1 UNL       0.053980
     18 C12         76.0960    32.7770    49.1250 c3         1 UNL       0.117349
     19 C13         76.5210    32.4680    50.6120 cc         1 UNL       0.154824
     20 N2          76.7830    31.2770    51.1600 nd         1 UNL      -0.135240
     21 N3          77.0780    31.4750    52.3760 nd         1 UNL      -0.137859
     22 C14         77.0150    32.7900    52.6490 cc         1 UNL       0.126312
     23 C15         77.3150    33.3970    54.0210 c3         1 UNL      -0.005808
     24 N4          76.6590    33.4330    51.5290 na         1 UNL      -0.233685
     25 C16         76.4170    34.7430    51.2660 cc         1 UNL       0.087987
     26 C17         76.7320    35.4280    50.0730 cd         1 UNL       0.032980
     27 C18         77.4890    34.8330    49.0340 cf         1 UNL       0.075509
     28 N5          77.2280    33.5780    48.5530 n2         1 UNL      -0.272241
     29 C19         78.5370    35.5240    48.3510 ca         1 UNL       0.000500
     30 C20         79.0770    35.0840    47.1520 ca         1 UNL      -0.051329
     31 C21         80.1660    35.7320    46.5800 ca         1 UNL      -0.042855
     32 C22         80.7510    36.8270    47.1810 ca         1 UNL       0.040590
     33 C23         80.2350    37.2800    48.3730 ca         1 UNL      -0.042855
     34 C24         79.1450    36.6390    48.9490 ca         1 UNL      -0.051329
     35 Cl          82.1100    37.6730    46.4820 cl         1 UNL      -0.084350
     36 C25         76.2460    36.7660    50.1140 cd         1 UNL      -0.029589
     37 C26         75.5940    37.0990    51.2880 cc         1 UNL      -0.008353
     38 C27         74.9750    38.4740    51.6420 c3         1 UNL      -0.033021
     39 S           75.5610    35.7570    52.3720 ss         1 UNL      -0.077704
     40 C28         76.3790    37.7580    48.9490 c3         1 UNL      -0.038218
     41 C29         70.0360    43.0090    48.7490 ca         1 UNL       0.088968
     42 C30         70.3840    42.5220    50.0290 ca         1 UNL      -0.030904
     43 C31         70.1020    43.2920    51.2220 ca         1 UNL      -0.058828
     44 C32         69.4820    44.5310    51.1280 ca         1 UNL      -0.048653
     45 C33         69.1470    44.9880    49.8280 ca         1 UNL       0.052950
     46 C34         68.4860    46.2360    49.4050 c          1 UNL       0.253852
     47 O3          68.0720    47.1940    50.1010 o          1 UNL      -0.271185
     48 N6          68.3920    46.1900    48.0830 n          1 UNL      -0.220987
     49 C35         67.7520    47.0950    46.9440 c3         1 UNL       0.111246
     50 C36         68.1620    48.5490    47.5130 c          1 UNL       0.239300
     51 O4          69.1140    48.6570    48.1480 o          1 UNL      -0.275092
     52 N7          67.2970    49.6230    47.1790 ns         1 UNL      -0.254120
     53 C37         66.0460    49.3730    46.5630 c          1 UNL       0.218183
     54 O5          65.4870    50.3390    46.0340 o          1 UNL      -0.277296
     55 C38         65.4900    47.9740    46.5940 c3         1 UNL       0.027062
     56 C39         66.2100    47.1910    47.7120 c3         1 UNL      -0.016458
     57 C40         68.9410    44.9970    47.4970 c          1 UNL       0.256420
     58 O6          69.0130    44.6600    46.3330 o          1 UNL      -0.271077
     59 C41         69.4230    44.2360    48.6800 ca         1 UNL       0.080563
     60 H2          71.8480    41.3830    47.3340 h1         1 UNL       0.067439
     61 H3          70.4090    40.4630    47.7280 h1         1 UNL       0.067439
     62 HN          72.4100    39.7990    45.4990 hn         1 UNL       0.149408
     63 H22         70.4580    39.1250    43.6240 h1         1 UNL       0.046673
     64 H23         71.1380    40.6670    43.0880 h1         1 UNL       0.046673
     65 H32         73.2610    39.7440    42.8400 hc         1 UNL       0.028255
     66 H33         72.0980    38.7090    42.0110 hc         1 UNL       0.028255
     67 H42         73.4940    38.2500    44.5710 hc         1 UNL       0.026712
     68 H43         73.7630    37.4500    43.0230 hc         1 UNL       0.026712
     69 H52         71.2870    37.2040    44.7110 hc         1 UNL       0.026655
     70 H53         71.6540    36.3250    43.2000 hc         1 UNL       0.026655
     71 H62         72.3040    35.0210    45.2690 hc         1 UNL       0.026655
     72 H63         73.4490    36.3250    45.6750 hc         1 UNL       0.026655
     73 H72         74.5340    35.9740    43.3830 hc         1 UNL       0.026712
     74 H73         73.4910    34.5320    43.1890 hc         1 UNL       0.026712
     75 H82         75.4500    35.0450    45.5300 hc         1 UNL       0.028255
     76 H83         75.6230    33.7910    44.2670 hc         1 UNL       0.028255
     77 H92         73.5830    32.7340    44.9280 h1         1 UNL       0.046672
     78 H93         73.1740    34.0650    46.0230 h1         1 UNL       0.046672
     79 H1          74.2160    33.1230    47.5210 hn         1 UNL       0.149322
     80 H112        76.8310    30.9270    48.2910 hc         1 UNL       0.039176
     81 H113        75.1040    30.9030    48.7220 hc         1 UNL       0.039176
     82 H12         75.1800    33.3680    49.1150 h1         1 UNL       0.064028
     83 H20         78.6460    34.2270    46.6560 ha         1 UNL       0.063039
     84 H21         80.5630    35.3700    45.6430 ha         1 UNL       0.063868
     85 H231        80.6780    38.1350    48.8620 ha         1 UNL       0.063868
     86 H24         78.7540    37.0100    49.8850 ha         1 UNL       0.063039
     87 H30         70.8680    41.5610    50.1190 ha         1 UNL       0.065072
     88 H31         70.3750    42.9010    52.1910 ha         1 UNL       0.062394
     89 H321        69.2640    45.1210    52.0060 ha         1 UNL       0.063130
     90 H35         67.8520    46.8440    45.8880 h1         1 UNL       0.061307
     91 HN7         67.5750    50.5730    47.3820 hn         1 UNL       0.158624
     92 H382        65.6620    47.4880    45.6340 hc         1 UNL       0.036554
     93 H383        64.4200    48.0090    46.8010 hc         1 UNL       0.036554
     94 H392        66.2460    47.7430    48.6510 hc         1 UNL       0.029619
     95 H393        65.7720    46.2020    47.8490 hc         1 UNL       0.029619
     96 H271        74.5550    38.4360    52.6470 hc         1 UNL       0.028527
     97 H272        74.1870    38.7120    50.9280 hc         1 UNL       0.028527
     98 H273        75.7480    39.2420    51.6000 hc         1 UNL       0.028527
     99 H151        77.8860    32.6850    54.6170 hc         1 UNL       0.031046
    100 H152        77.8950    34.3110    53.8950 hc         1 UNL       0.031046
    101 H153        76.3790    33.6280    54.5290 hc         1 UNL       0.031046
    102 H281        75.4310    38.2750    48.8010 hc         1 UNL       0.028020
    103 H282        76.6440    37.2170    48.0400 hc         1 UNL       0.028020
    104 H283        77.1570    38.4860    49.1790 hc         1 UNL       0.028020
@<TRIPOS>BOND
     1     1     2 1   
     2     1    41 1   
     3     2     3 1   
     4     2    60 1   
     5     2    61 1   
     6     3     4 2   
     7     3     5 1   
     8     5     6 1   
     9     5    62 1   
    10     6     7 1   
    11     6    63 1   
    12     6    64 1   
    13     7     8 1   
    14     7    65 1   
    15     7    66 1   
    16     8     9 1   
    17     8    67 1   
    18     8    68 1   
    19     9    10 1   
    20     9    69 1   
    21     9    70 1   
    22    10    11 1   
    23    10    71 1   
    24    10    72 1   
    25    11    12 1   
    26    11    73 1   
    27    11    74 1   
    28    12    13 1   
    29    12    75 1   
    30    12    76 1   
    31    13    14 1   
    32    13    77 1   
    33    13    78 1   
    34    14    15 1   
    35    14    79 1   
    36    15    16 2   
    37    15    17 1   
    38    17    18 1   
    39    17    80 1   
    40    17    81 1   
    41    18    19 1   
    42    18    28 1   
    43    18    82 1   
    44    19    20 2   
    45    19    24 1   
    46    20    21 1   
    47    21    22 2   
    48    22    23 1   
    49    22    24 1   
    50    23    99 1   
    51    23   100 1   
    52    23   101 1   
    53    24    25 1   
    54    25    26 2   
    55    25    39 1   
    56    26    27 1   
    57    26    36 1   
    58    27    28 2   
    59    27    29 1   
    60    29    30 ar  
    61    29    34 ar  
    62    30    31 ar  
    63    30    83 1   
    64    31    32 ar  
    65    31    84 1   
    66    32    33 ar  
    67    32    35 1   
    68    33    34 ar  
    69    33    85 1   
    70    34    86 1   
    71    36    37 2   
    72    36    40 1   
    73    37    38 1   
    74    37    39 1   
    75    38    96 1   
    76    38    97 1   
    77    38    98 1   
    78    40   102 1   
    79    40   103 1   
    80    40   104 1   
    81    41    42 ar  
    82    41    59 ar  
    83    42    43 ar  
    84    42    87 1   
    85    43    44 ar  
    86    43    88 1   
    87    44    45 ar  
    88    44    89 1   
    89    45    46 1   
    90    45    59 ar  
    91    46    47 2   
    92    46    48 1   
    93    48    49 1   
    94    48    57 1   
    95    49    50 1   
    96    49    56 1   
    97    49    90 1   
    98    50    51 2   
    99    50    52 1   
   100    52    53 1   
   101    52    91 1   
   102    53    54 2   
   103    53    55 1   
   104    55    56 1   
   105    55    92 1   
   106    55    93 1   
   107    56    94 1   
   108    56    95 1   
   109    57    58 2   
   110    57    59 1   
@<TRIPOS>SUBSTRUCTURE
     1 UNL         1 TEMP              0 ****  ****    0 ROOT
