@<TRIPOS>MOLECULE
RN6
  104   110     1     0     0
SMALL
bcc


@<TRIPOS>ATOM
      1 O           64.5780    25.7650    45.9830 os       513 RN6      -0.302900
      2 C15         64.0380    26.8280    46.7480 c3       513 RN6       0.044400
      3 C16         65.1010    24.5550    46.3520 ca       513 RN6       0.181100
      4 C17         65.3240    24.2030    47.6740 ca       513 RN6      -0.181000
      5 C18         65.9150    22.9880    47.9720 ca       513 RN6      -0.079000
      6 C19         66.2850    22.1210    46.9600 ca       513 RN6      -0.091000
      7 C20         66.0500    22.4830    45.6370 ca       513 RN6      -0.104600
      8 C21         66.3640    21.7520    44.3860 c        513 RN6       0.731100
      9 C22         66.0860    22.2630    41.9210 c3       513 RN6       0.058700
     10 C23         65.7400    20.8190    41.6060 c        513 RN6       0.682500
     11 C24         67.3830    20.7800    39.7850 c        513 RN6       0.703500
     12 C25         67.7310    22.2110    40.0600 c3       513 RN6      -0.154400
     13 C26         67.5170    22.6020    41.5150 c3       513 RN6      -0.096400
     14 C27         65.4540    23.6870    45.3030 ca       513 RN6      -0.171600
     15 C28         65.3540    23.7610    43.8220 c        513 RN6       0.744100
     16 N4          65.9240    22.5750    43.3410 n        513 RN6      -0.520400
     17 N5          66.4200    20.2110    40.5780 ns       513 RN6      -0.595500
     18 O1          67.9270    20.1240    38.9000 o        513 RN6      -0.601500
     19 O2          64.8740    20.2180    42.2340 o        513 RN6      -0.594500
     20 O3          66.9050    20.6700    44.2450 o        513 RN6      -0.566500
     21 O4          64.8780    24.6390    43.1260 o        513 RN6      -0.554500
     22 H152        63.3690    27.4300    46.1200 h1       513 RN6       0.096200
     23 H153        63.4780    26.4560    47.6150 h1       513 RN6       0.096200
     24 H17         65.0380    24.8760    48.4690 ha       513 RN6       0.171000
     25 H18         66.0890    22.7140    49.0030 ha       513 RN6       0.151000
     26 H19         66.7490    21.1750    47.1930 ha       513 RN6       0.164000
     27 H22         65.4120    22.9050    41.3530 h1       513 RN6       0.109700
     28 H252        68.7790    22.3690    39.8090 hc       513 RN6       0.087700
     29 H253        67.1150    22.8510    39.4290 hc       513 RN6       0.087700
     30 H262        67.6850    23.6720    41.6330 hc       513 RN6       0.079200
     31 H263        68.2150    22.0520    42.1470 hc       513 RN6       0.079200
     32 H5          66.1860    19.2470    40.3860 hn       513 RN6       0.340500
     33 C10         70.6590    29.7150    48.0910 c3       513 RN6      -0.081400
     34 C11         69.0990    29.9250    47.9310 c3       513 RN6      -0.077400
     35 C12         68.1710    28.7470    48.3420 c3       513 RN6      -0.103400
     36 C13         67.7260    27.8240    47.1790 c3       513 RN6       0.081000
     37 C14         65.1910    27.7500    47.2190 c        513 RN6       0.621100
     38 C7          74.2830    31.6350    49.1130 c3       513 RN6      -0.104400
     39 C8          73.0510    30.6800    48.7330 c3       513 RN6      -0.084400
     40 C9          71.6720    30.9600    47.9700 c3       513 RN6      -0.077400
     41 N3          66.4310    27.1550    47.4360 ns       513 RN6      -0.546900
     42 O5          65.0620    28.9690    47.1970 o        513 RN6      -0.607100
     43 H102        70.9810    28.9380    47.3860 hc       513 RN6       0.043700
     44 H103        70.8020    29.2770    49.0880 hc       513 RN6       0.043700
     45 H112        68.8340    30.7750    48.5730 hc       513 RN6       0.043200
     46 H113        68.8720    30.2510    46.9080 hc       513 RN6       0.043200
     47 H122        67.2650    29.1940    48.7710 hc       513 RN6       0.044700
     48 H123        68.6220    28.1540    49.1480 hc       513 RN6       0.044700
     49 H132        68.4920    27.0520    47.0280 h1       513 RN6       0.066700
     50 H133        67.6430    28.3940    46.2450 h1       513 RN6       0.066700
     51 H72         74.7080    31.9990    48.1670 hc       513 RN6       0.041200
     52 H73         73.9430    32.5220    49.6590 hc       513 RN6       0.041200
     53 H82         73.4850    29.7980    48.2450 hc       513 RN6       0.053200
     54 H83         72.7350    30.3120    49.7180 hc       513 RN6       0.053200
     55 H92         71.8600    31.1920    46.9140 hc       513 RN6       0.035200
     56 H93         71.2030    31.8460    48.4150 hc       513 RN6       0.035200
     57 HN3         66.4380    26.1450    47.3520 hn       513 RN6       0.320500
     58 N           76.7220    32.8550    57.5780 nc       513 RN6      -0.339000
     59 C           75.4010    34.6710    58.6480 c3       513 RN6      -0.126400
     60 C1          75.7280    33.7060    57.5680 cd       513 RN6       0.380800
     61 C2          75.6900    32.6030    55.6680 cd       513 RN6       0.357800
     62 C29         74.8330    34.4330    53.6010 ce       513 RN6       0.564500
     63 C3          75.2760    32.2180    54.2650 c3       513 RN6       0.116200
     64 C30         75.1530    35.6020    52.7550 ca       513 RN6      -0.133900
     65 C31         74.8930    36.8990    53.1860 ca       513 RN6      -0.096500
     66 C32         75.2230    37.9860    52.3970 ca       513 RN6      -0.129500
     67 C33         75.8170    37.7720    51.1730 ca       513 RN6       0.025400
     68 C34         76.0890    36.5000    50.7220 ca       513 RN6      -0.129500
     69 C35         75.7540    35.4180    51.5150 ca       513 RN6      -0.096500
     70 C36         73.7180    34.5670    54.5710 cc       513 RN6      -0.213900
     71 C37         73.8740    34.2040    55.8890 cd       513 RN6      -0.013300
     72 C38         71.6050    35.0640    55.4220 cd       513 RN6      -0.120400
     73 C39         70.1790    35.4990    55.5750 c3       513 RN6      -0.025800
     74 C4          75.9050    30.9250    53.7320 c3       513 RN6      -0.133400
     75 C40         72.3820    35.0500    54.3060 cc       513 RN6      -0.056300
     76 C41         71.8610    35.4410    52.9550 c3       513 RN6      -0.041800
     77 C5          75.3750    30.6010    52.3520 c        513 RN6       0.656100
     78 C6          75.4810    30.8870    49.9120 c3       513 RN6       0.085000
     79 N1          76.7000    32.1520    56.3760 nc       513 RN6      -0.327000
     80 N2          75.9720    31.2280    51.3400 ns       513 RN6      -0.551900
     81 N6          75.5520    33.3890    53.4210 n2       513 RN6      -0.595900
     82 N7          75.0320    33.5840    56.3820 na       513 RN6      -0.238800
     83 O6          74.4490    29.8110    52.1910 o        513 RN6      -0.619100
     84 S           72.4510    34.4740    56.8220 ss       513 RN6       0.065200
     85 CL          76.2300    39.1370    50.1740 cl       513 RN6      -0.086400
     86 H1          76.2720    34.8080    59.2890 hc       513 RN6       0.067367
     87 H2          74.5710    34.2860    59.2400 hc       513 RN6       0.067367
     88 H3          75.1200    35.6280    58.2080 hc       513 RN6       0.067367
     89 H31         74.1960    32.0730    54.2740 h1       513 RN6       0.082700
     90 H311        74.4280    37.0590    54.1480 ha       513 RN6       0.148500
     91 H32         75.0170    38.9900    52.7370 ha       513 RN6       0.151500
     92 H34         76.5580    36.3490    49.7610 ha       513 RN6       0.151500
     93 H35         75.9620    34.4170    51.1670 ha       513 RN6       0.148500
     94 H391        69.8790    35.4020    56.6180 hc       513 RN6       0.054033
     95 H392        69.5400    34.8720    54.9530 hc       513 RN6       0.054033
     96 H393        70.0810    36.5390    55.2640 hc       513 RN6       0.054033
     97 H42         75.6650    30.1050    54.4090 hc       513 RN6       0.093200
     98 H43         76.9870    31.0450    53.6830 hc       513 RN6       0.093200
     99 H411        72.6520    35.3290    52.2140 hc       513 RN6       0.054367
    100 H412        71.5310    36.4800    52.9800 hc       513 RN6       0.054367
    101 H413        71.0210    34.7990    52.6900 hc       513 RN6       0.054367
    102 H62         76.3610    30.8340    49.2590 h1       513 RN6       0.061200
    103 H63         75.1510    29.8400    49.9530 h1       513 RN6       0.061200
    104 H21         76.6980    31.8990    51.5460 hn       513 RN6       0.318500
@<TRIPOS>BOND
     1     1     2 1   
     2     1     3 1   
     3     2    22 1   
     4     2    23 1   
     5     2    37 1   
     6     3     4 ar  
     7     3    14 ar  
     8     4     5 ar  
     9     4    24 1   
    10     5     6 ar  
    11     5    25 1   
    12     6     7 ar  
    13     6    26 1   
    14     7     8 1   
    15     7    14 ar  
    16     8    16 1   
    17     8    20 2   
    18     9    10 1   
    19     9    13 1   
    20     9    16 1   
    21     9    27 1   
    22    10    17 1   
    23    10    19 2   
    24    11    12 1   
    25    11    17 1   
    26    11    18 2   
    27    12    13 1   
    28    12    28 1   
    29    12    29 1   
    30    13    30 1   
    31    13    31 1   
    32    14    15 1   
    33    15    16 1   
    34    15    21 2   
    35    17    32 1   
    36    33    34 1   
    37    33    40 1   
    38    33    43 1   
    39    33    44 1   
    40    34    35 1   
    41    34    45 1   
    42    34    46 1   
    43    35    36 1   
    44    35    47 1   
    45    35    48 1   
    46    36    41 1   
    47    36    49 1   
    48    36    50 1   
    49    37    41 1   
    50    37    42 2   
    51    38    39 1   
    52    38    51 1   
    53    38    52 1   
    54    38    78 1   
    55    39    40 1   
    56    39    53 1   
    57    39    54 1   
    58    40    55 1   
    59    40    56 1   
    60    41    57 1   
    61    58    60 2   
    62    58    79 1   
    63    59    60 1   
    64    59    86 1   
    65    59    87 1   
    66    59    88 1   
    67    60    82 1   
    68    61    63 1   
    69    61    79 2   
    70    61    82 1   
    71    62    64 1   
    72    62    70 1   
    73    62    81 2   
    74    63    74 1   
    75    63    81 1   
    76    63    89 1   
    77    64    65 ar  
    78    64    69 ar  
    79    65    66 ar  
    80    65    90 1   
    81    66    67 ar  
    82    66    91 1   
    83    67    68 ar  
    84    67    85 1   
    85    68    69 ar  
    86    68    92 1   
    87    69    93 1   
    88    70    71 2   
    89    70    75 1   
    90    71    82 1   
    91    71    84 1   
    92    72    73 1   
    93    72    75 2   
    94    72    84 1   
    95    73    94 1   
    96    73    95 1   
    97    73    96 1   
    98    74    77 1   
    99    74    97 1   
   100    74    98 1   
   101    75    76 1   
   102    76    99 1   
   103    76   100 1   
   104    76   101 1   
   105    77    80 1   
   106    77    83 2   
   107    78    80 1   
   108    78   102 1   
   109    78   103 1   
   110    80   104 1   
@<TRIPOS>SUBSTRUCTURE
     1 RN6         1 TEMP              0 ****  ****    0 ROOT
