@<TRIPOS>MOLECULE
UNL
  104   110     1     0     0
SMALL
gas


@<TRIPOS>ATOM
      1 O           70.2690    42.3170    47.6120 os         1 UNL      -0.335670
      2 C           70.8220    41.0660    47.9290 c3         1 UNL       0.129859
      3 C1          71.3070    40.1610    46.9560 c          1 UNL       0.238195
      4 O1          71.5710    40.4690    45.7790 o          1 UNL      -0.275031
      5 N           71.5190    38.7840    47.3340 ns         1 UNL      -0.313412
      6 C2          72.0460    37.8100    46.4700 c3         1 UNL       0.011021
      7 C3          72.1800    36.4530    46.6800 c3         1 UNL      -0.037585
      8 C4          72.8470    35.7160    47.7910 c3         1 UNL      -0.051820
      9 C5          72.9390    34.3170    47.6810 c3         1 UNL      -0.053249
     10 C6          73.2360    33.1140    48.1340 c3         1 UNL      -0.053249
     11 C7          74.4340    32.4840    48.7210 c3         1 UNL      -0.051820
     12 C8          74.3450    31.0190    48.9020 c3         1 UNL      -0.037586
     13 C9          75.4070    30.2320    49.4930 c3         1 UNL       0.010936
     14 N1          75.5840    30.4000    50.8960 ns         1 UNL      -0.315355
     15 C10         76.6910    29.7900    51.6110 c          1 UNL       0.214248
     16 O2          77.4500    29.1910    50.9630 o          1 UNL      -0.277652
     17 C11         76.8070    29.9720    53.1480 c3         1 UNL       0.053980
     18 C12         75.6860    31.0560    53.4720 c3         1 UNL       0.117349
     19 C13         75.8060    31.4770    55.0020 cc         1 UNL       0.154824
     20 N2          76.5990    30.9790    55.9380 nd         1 UNL      -0.135240
     21 N3          76.3400    31.5930    57.0230 nd         1 UNL      -0.137859
     22 C14         75.3760    32.5000    56.8140 cc         1 UNL       0.126312
     23 C15         74.7950    33.4300    57.8900 c3         1 UNL      -0.005808
     24 N4          75.0210    32.4380    55.5160 na         1 UNL      -0.233685
     25 C16         74.0810    33.1010    54.7910 cc         1 UNL       0.087987
     26 C17         74.2090    33.5230    53.4660 cd         1 UNL       0.032980
     27 C18         75.4480    33.4300    52.7410 cf         1 UNL       0.075509
     28 N5          76.1570    32.2970    52.7290 n2         1 UNL      -0.272241
     29 C19         75.9130    34.5040    51.9290 ca         1 UNL       0.000500
     30 C20         76.9550    34.3460    51.0130 ca         1 UNL      -0.051329
     31 C21         77.4700    35.4270    50.3030 ca         1 UNL      -0.042855
     32 C22         76.9620    36.6920    50.4880 ca         1 UNL       0.040590
     33 C23         75.9410    36.8730    51.3820 ca         1 UNL      -0.042855
     34 C24         75.4170    35.7910    52.0980 ca         1 UNL      -0.051329
     35 Cl          77.5780    38.0750    49.6110 cl         1 UNL      -0.084350
     36 C25         73.0000    34.0830    52.9990 cd         1 UNL      -0.029589
     37 C26         71.9600    34.1080    53.9300 cc         1 UNL      -0.008353
     38 C27         70.5350    34.6660    53.7250 c3         1 UNL      -0.033021
     39 S           72.4960    33.4150    55.4160 ss         1 UNL      -0.077704
     40 C28         72.7800    34.5860    51.5680 c3         1 UNL      -0.038218
     41 C29         70.0150    43.0220    48.8000 ca         1 UNL       0.088968
     42 C30         70.3430    42.5050    50.0690 ca         1 UNL      -0.030904
     43 C31         70.0670    43.2760    51.2440 ca         1 UNL      -0.058828
     44 C32         69.4760    44.5350    51.1380 ca         1 UNL      -0.048653
     45 C33         69.1620    45.0130    49.8430 ca         1 UNL       0.052950
     46 C34         68.5020    46.2460    49.4010 c          1 UNL       0.253852
     47 O3          68.0880    47.2060    50.0930 o          1 UNL      -0.271185
     48 N6          68.4020    46.1930    48.0810 n          1 UNL      -0.220987
     49 C35         67.7550    47.0780    46.9340 c3         1 UNL       0.111246
     50 C36         68.1620    48.5420    47.4960 c          1 UNL       0.239300
     51 O4          69.1120    48.6570    48.1310 o          1 UNL      -0.275092
     52 N7          67.2930    49.6130    47.1570 ns         1 UNL      -0.254120
     53 C37         66.0400    49.3590    46.5460 c          1 UNL       0.218183
     54 O5          65.4740    50.3200    46.0200 o          1 UNL      -0.277296
     55 C38         65.4930    47.9590    46.5790 c3         1 UNL       0.027062
     56 C39         66.2100    47.1890    47.7160 c3         1 UNL      -0.016458
     57 C40         68.9490    45.0010    47.5020 c          1 UNL       0.256420
     58 O6          69.0140    44.6630    46.3340 o          1 UNL      -0.271077
     59 C41         69.4350    44.2530    48.6910 ca         1 UNL       0.080563
     60 H2          71.6630    41.2710    48.5920 h1         1 UNL       0.067439
     61 H3          70.0770    40.5300    48.5180 h1         1 UNL       0.067439
     62 HN          71.2740    38.5050    48.2730 hn         1 UNL       0.149408
     63 H22         71.4380    37.8870    45.5690 h1         1 UNL       0.046673
     64 H23         73.0370    38.1660    46.1910 h1         1 UNL       0.046673
     65 H32         71.1550    36.0840    46.6940 hc         1 UNL       0.028255
     66 H33         72.6190    36.0580    45.7640 hc         1 UNL       0.028255
     67 H42         72.2960    35.9360    48.7050 hc         1 UNL       0.026712
     68 H43         73.8560    36.1130    47.9020 hc         1 UNL       0.026712
     69 H52         71.8960    34.1230    47.4300 hc         1 UNL       0.026655
     70 H53         73.3770    34.2450    46.6860 hc         1 UNL       0.026655
     71 H62         73.0250    32.4760    47.2760 hc         1 UNL       0.026655
     72 H63         72.4380    32.8880    48.8410 hc         1 UNL       0.026655
     73 H72         75.2810    32.6930    48.0670 hc         1 UNL       0.026712
     74 H73         74.6250    32.9420    49.6920 hc         1 UNL       0.026712
     75 H82         73.4640    30.8460    49.5190 hc         1 UNL       0.028255
     76 H83         74.1370    30.5890    47.9220 hc         1 UNL       0.028255
     77 H92         76.3410    30.5050    49.0010 h1         1 UNL       0.046672
     78 H93         75.2070    29.1790    49.2940 h1         1 UNL       0.046672
     79 H1          74.9190    30.9610    51.4100 hn         1 UNL       0.149322
     80 H112        77.7960    30.3380    53.4250 hc         1 UNL       0.039176
     81 H113        76.5900    29.0350    53.6600 hc         1 UNL       0.039176
     82 H12         74.6830    30.7380    53.1890 h1         1 UNL       0.064028
     83 H20         77.3710    33.3620    50.8520 ha         1 UNL       0.063039
     84 H21         78.2760    35.2710    49.6010 ha         1 UNL       0.063868
     85 H231        75.5350    37.8620    51.5360 ha         1 UNL       0.063868
     86 H24         74.6110    35.9600    52.7960 ha         1 UNL       0.063039
     87 H30         70.8010    41.5310    50.1550 ha         1 UNL       0.065072
     88 H31         70.3180    42.8810    52.2170 ha         1 UNL       0.062394
     89 H321        69.2650    45.1270    52.0160 ha         1 UNL       0.063130
     90 H35         67.8510    46.8170    45.8800 h1         1 UNL       0.061307
     91 HN7         67.5710    50.5640    47.3530 hn         1 UNL       0.158624
     92 H382        64.4200    47.9860    46.7710 hc         1 UNL       0.036554
     93 H383        65.6840    47.4670    45.6250 hc         1 UNL       0.036554
     94 H392        65.7650    46.2120    47.9060 hc         1 UNL       0.029619
     95 H393        66.2660    47.7850    48.6270 hc         1 UNL       0.029619
     96 H271        69.9680    34.5640    54.6500 hc         1 UNL       0.028527
     97 H272        70.5940    35.7190    53.4490 hc         1 UNL       0.028527
     98 H273        70.0380    34.1100    52.9300 hc         1 UNL       0.028527
     99 H151        75.4850    33.4890    58.7320 hc         1 UNL       0.031046
    100 H152        73.8380    33.0360    58.2320 hc         1 UNL       0.031046
    101 H153        74.6490    34.4250    57.4700 hc         1 UNL       0.031046
    102 H281        71.8200    34.2240    51.1990 hc         1 UNL       0.028020
    103 H282        73.5790    34.2150    50.9260 hc         1 UNL       0.028020
    104 H283        72.7840    35.6760    51.5610 hc         1 UNL       0.028020
@<TRIPOS>BOND
     1     1     2 1   
     2     1    41 1   
     3     2     3 1   
     4     2    60 1   
     5     2    61 1   
     6     3     4 2   
     7     3     5 1   
     8     5     6 1   
     9     5    62 1   
    10     6     7 1   
    11     6    63 1   
    12     6    64 1   
    13     7     8 1   
    14     7    65 1   
    15     7    66 1   
    16     8     9 1   
    17     8    67 1   
    18     8    68 1   
    19     9    10 1   
    20     9    69 1   
    21     9    70 1   
    22    10    11 1   
    23    10    71 1   
    24    10    72 1   
    25    11    12 1   
    26    11    73 1   
    27    11    74 1   
    28    12    13 1   
    29    12    75 1   
    30    12    76 1   
    31    13    14 1   
    32    13    77 1   
    33    13    78 1   
    34    14    15 1   
    35    14    79 1   
    36    15    16 2   
    37    15    17 1   
    38    17    18 1   
    39    17    80 1   
    40    17    81 1   
    41    18    19 1   
    42    18    28 1   
    43    18    82 1   
    44    19    20 2   
    45    19    24 1   
    46    20    21 1   
    47    21    22 2   
    48    22    23 1   
    49    22    24 1   
    50    23    99 1   
    51    23   100 1   
    52    23   101 1   
    53    24    25 1   
    54    25    26 2   
    55    25    39 1   
    56    26    27 1   
    57    26    36 1   
    58    27    28 2   
    59    27    29 1   
    60    29    30 ar  
    61    29    34 ar  
    62    30    31 ar  
    63    30    83 1   
    64    31    32 ar  
    65    31    84 1   
    66    32    33 ar  
    67    32    35 1   
    68    33    34 ar  
    69    33    85 1   
    70    34    86 1   
    71    36    37 2   
    72    36    40 1   
    73    37    38 1   
    74    37    39 1   
    75    38    96 1   
    76    38    97 1   
    77    38    98 1   
    78    40   102 1   
    79    40   103 1   
    80    40   104 1   
    81    41    42 ar  
    82    41    59 ar  
    83    42    43 ar  
    84    42    87 1   
    85    43    44 ar  
    86    43    88 1   
    87    44    45 ar  
    88    44    89 1   
    89    45    46 1   
    90    45    59 ar  
    91    46    47 2   
    92    46    48 1   
    93    48    49 1   
    94    48    57 1   
    95    49    50 1   
    96    49    56 1   
    97    49    90 1   
    98    50    51 2   
    99    50    52 1   
   100    52    53 1   
   101    52    91 1   
   102    53    54 2   
   103    53    55 1   
   104    55    56 1   
   105    55    92 1   
   106    55    93 1   
   107    56    94 1   
   108    56    95 1   
   109    57    58 2   
   110    57    59 1   
@<TRIPOS>SUBSTRUCTURE
     1 UNL         1 TEMP              0 ****  ****    0 ROOT
