@<TRIPOS>MOLECULE
FWZ
  125   132     1     0     0
SMALL
bcc


@<TRIPOS>ATOM
      1 N1          77.0910    26.9580    51.6990 ns       301 FWZ      -0.551900
      2 C4          76.6700    28.3200    49.7580 c        301 FWZ       0.646100
      3 C5          73.6550    27.8020    50.1920 c3       301 FWZ      -0.097433
      4 C6          74.2330    26.3380    52.1090 c3       301 FWZ      -0.097433
      5 C7          74.7830    28.7550    52.2120 c3       301 FWZ      -0.097433
      6 C10         77.1860    29.2200    47.5680 c3       301 FWZ       0.033700
      7 C13         76.0460    27.0700    47.6360 c3       301 FWZ       0.035000
      8 C15         76.5460    30.5910    47.7900 c        301 FWZ       0.666100
      9 C20         75.5960    34.5700    46.0930 ca       301 FWZ       0.088100
     10 C21         75.2750    35.0610    44.8300 ca       301 FWZ      -0.139000
     11 C22         75.8240    34.4820    43.6900 ca       301 FWZ       0.015000
     12 C24         77.0370    32.9410    45.0880 ca       301 FWZ      -0.114000
     13 C26         75.7050    36.3020    41.8520 cc       301 FWZ       0.361600
     14 C28         74.9780    35.3220    40.0170 cd       301 FWZ       0.375300
     15 C2          76.1020    27.2130    50.6620 c3       301 FWZ       0.060700
     16 C3          74.7050    27.5340    51.2810 c3       301 FWZ      -0.050000
     17 N8          76.6060    28.1750    48.4200 n        301 FWZ      -0.454800
     18 O9          77.1930    29.3000    50.2670 o        301 FWZ      -0.634100
     19 C11         76.8960    28.7230    46.1380 c3       301 FWZ      -0.085400
     20 C12         76.7380    27.2180    46.2860 c3       301 FWZ       0.132100
     21 O14         78.0150    26.5610    46.2660 oh       301 FWZ      -0.587800
     22 O16         75.3630    30.7010    48.1290 o        301 FWZ      -0.675100
     23 N17         77.3470    31.6360    47.5750 ns       301 FWZ      -0.537900
     24 C18         76.8670    33.0090    47.6110 c3       301 FWZ       0.129300
     25 C19         76.4890    33.5020    46.2400 ca       301 FWZ      -0.124300
     26 C23         76.6980    33.4110    43.8320 ca       301 FWZ      -0.118000
     27 C25         75.5290    35.0360    42.3530 cd       301 FWZ      -0.174400
     28 N27         75.3550    36.4520    40.5250 nc       301 FWZ      -0.624000
     29 S29         74.9750    33.9780    41.0860 ss       301 FWZ      -0.061300
     30 C30         76.1930    37.5030    42.5960 c3       301 FWZ      -0.128400
     31 C31         77.8520    25.8950    51.9820 c        301 FWZ       0.684100
     32 C32         78.7630    26.0520    53.2220 cx       301 FWZ       0.013300
     33 O33         77.8680    24.8610    51.3280 o        301 FWZ      -0.619100
     34 F34         78.7530    27.3830    53.6780 f        301 FWZ      -0.198300
     35 C35         78.8540    25.0450    54.2970 cx       301 FWZ      -0.108400
     36 C36         80.0410    25.3380    53.4240 cx       301 FWZ      -0.108400
     37 O37         74.5170    34.8180    47.1320 os       301 FWZ      -0.332900
     38 C38         74.2340    34.8640    48.6990 c3       301 FWZ       0.132400
     39 C39         72.6810    34.6420    49.2930 c3       301 FWZ      -0.091100
     40 C40         68.9530    34.4850    54.4730 c3       301 FWZ       0.181100
     41 N41         68.8470    34.1970    56.1120 nx       301 FWZ      -0.682400
     42 C42         68.1620    32.9510    56.4930 c3       301 FWZ       0.105300
     43 C43         68.0140    32.8490    58.0130 c3       301 FWZ       0.152800
     44 N44         69.0320    33.6560    58.6940 nh       301 FWZ      -0.637000
     45 C45         68.8690    35.0870    58.4140 c3       301 FWZ       0.152800
     46 C46         68.4030    35.3030    56.9770 c3       301 FWZ       0.105300
     47 C47         69.3790    33.2530    60.0140 ca       301 FWZ      -0.077700
     48 C48         69.0510    33.9950    61.1480 ca       301 FWZ      -0.175300
     49 C49         69.3960    33.4840    62.4040 cp       301 FWZ       0.360800
     50 N50         69.9870    32.2880    62.5320 nb       301 FWZ      -0.267000
     51 N51         70.3420    31.5750    61.4430 nb       301 FWZ      -0.351000
     52 C52         70.0590    32.0180    60.2130 ca       301 FWZ       0.600200
     53 N53         70.4960    31.2260    59.2250 nv       301 FWZ      -0.905500
     54 C54         69.0390    34.1750    63.6750 cp       301 FWZ      -0.235500
     55 C55         69.4390    33.6770    64.9280 ca       301 FWZ       0.170100
     56 C56         69.1470    34.3840    66.0990 ca       301 FWZ      -0.157000
     57 C57         68.4590    35.5830    66.0330 ca       301 FWZ      -0.079000
     58 C58         68.1130    36.1130    64.8090 ca       301 FWZ      -0.164000
     59 C59         68.3910    35.4150    63.6410 ca       301 FWZ      -0.087000
     60 O60         70.0210    32.4600    65.0790 oh       301 FWZ      -0.493100
     61 C61         72.0560    34.6330    50.8430 ca       301 FWZ      -0.021300
     62 C62         71.6960    33.4460    51.5740 ca       301 FWZ      -0.120500
     63 C63         70.8410    33.3940    52.7570 ca       301 FWZ      -0.097000
     64 C64         70.2240    34.5280    53.3890 ca       301 FWZ      -0.193300
     65 C65         70.5930    35.7140    52.6630 ca       301 FWZ      -0.097000
     66 C66         71.4420    35.7640    51.4810 ca       301 FWZ      -0.120500
     67 H1          77.2300    27.7360    52.3280 hn       301 FWZ       0.340500
     68 H51         73.9680    28.6520    49.5860 hc       301 FWZ       0.044478
     69 H52         73.5560    26.9200    49.5580 hc       301 FWZ       0.044478
     70 H53         72.6950    28.0220    50.6590 hc       301 FWZ       0.044478
     71 H61         74.1690    25.4560    51.4720 hc       301 FWZ       0.044478
     72 H62         74.9430    26.1520    52.9150 hc       301 FWZ       0.044478
     73 H63         73.2520    26.5530    52.5320 hc       301 FWZ       0.044478
     74 H71         75.1180    29.6240    51.6460 hc       301 FWZ       0.044478
     75 H72         73.7980    28.9540    52.6340 hc       301 FWZ       0.044478
     76 H73         75.4890    28.5530    53.0180 hc       301 FWZ       0.044478
     77 H10         78.2620    29.2800    47.7310 h1       301 FWZ       0.084700
     78 H132        76.2810    26.1090    48.0920 h1       301 FWZ       0.073700
     79 H133        74.9680    27.1880    47.5270 h1       301 FWZ       0.073700
     80 H21         74.5960    35.8960    44.7350 ha       301 FWZ       0.153000
     81 H24         77.7400    32.1260    45.1770 ha       301 FWZ       0.158000
     82 H28         74.6830    35.2310    38.9820 h5       301 FWZ       0.063100
     83 H2          76.0030    26.3080    50.0630 h1       301 FWZ       0.097700
     84 H112        77.7250    28.9600    45.4710 hc       301 FWZ       0.082700
     85 H113        75.9720    29.1660    45.7640 hc       301 FWZ       0.082700
     86 H12         76.1010    26.8260    45.4920 h1       301 FWZ       0.063700
     87 H14         78.0170    25.8840    45.5860 ho       301 FWZ       0.415000
     88 H17         78.3230    31.4670    47.3800 hn       301 FWZ       0.345500
     89 H182        75.9920    33.0600    48.2590 h1       301 FWZ       0.069200
     90 H183        77.6490    33.6500    48.0170 h1       301 FWZ       0.069200
     91 H23         77.1160    32.9400    42.9540 ha       301 FWZ       0.148000
     92 H301        76.4280    37.2250    43.6240 hc       301 FWZ       0.052700
     93 H302        77.0890    37.8910    42.1110 hc       301 FWZ       0.052700
     94 H303        75.4190    38.2700    42.5950 hc       301 FWZ       0.052700
     95 H352        78.8530    25.3600    55.3410 hc       301 FWZ       0.097950
     96 H353        78.3480    24.1010    54.0950 hc       301 FWZ       0.097950
     97 H362        80.9030    25.8650    53.8320 hc       301 FWZ       0.097950
     98 H363        80.2710    24.5750    52.6800 hc       301 FWZ       0.097950
     99 H382        74.8460    34.1460    49.2430 h1       301 FWZ       0.059700
    100 H383        74.5690    35.8470    49.0520 h1       301 FWZ       0.059700
    101 H392        72.3740    33.6820    48.8600 hc       301 FWZ       0.079700
    102 H393        72.0780    35.3720    48.7400 hc       301 FWZ       0.079700
    103 H402        68.4550    35.4500    54.3640 hx       301 FWZ       0.103200
    104 H403        68.2470    33.7650    54.0530 hx       301 FWZ       0.103200
    105 H41         69.8370    34.0650    56.2610 hn       301 FWZ       0.464800
    106 H422        68.7420    32.1020    56.1330 hx       301 FWZ       0.099450
    107 H423        67.1740    32.9310    56.0340 hx       301 FWZ       0.099450
    108 H432        68.1260    31.8060    58.3130 h1       301 FWZ       0.082700
    109 H433        67.0230    33.2020    58.3020 h1       301 FWZ       0.082700
    110 H452        69.8230    35.5920    58.5620 h1       301 FWZ       0.082700
    111 H453        68.1300    35.5050    59.0980 h1       301 FWZ       0.082700
    112 H462        68.8210    36.2380    56.6030 hx       301 FWZ       0.099450
    113 H463        67.3150    35.3620    56.9550 hx       301 FWZ       0.099450
    114 H48         68.5410    34.9430    61.0600 ha       301 FWZ       0.152000
    115 H531        70.3380    31.4860    58.2620 hn       301 FWZ       0.433300
    116 H532        70.9820    30.3680    59.4440 hn       301 FWZ       0.433300
    117 H56         69.4580    33.9930    67.0570 ha       301 FWZ       0.161000
    118 H57         68.1940    36.1040    66.9410 ha       301 FWZ       0.145000
    119 H58         67.6240    37.0750    64.7570 ha       301 FWZ       0.141000
    120 H59         68.1000    35.8350    62.6900 ha       301 FWZ       0.126000
    121 H60         70.8710    32.4540    64.6330 ho       301 FWZ       0.434000
    122 H621        72.0290    32.4950    51.1640 ha       301 FWZ       0.160000
    123 H631        70.5980    32.4080    53.1430 ha       301 FWZ       0.138000
    124 H65         70.1400    36.6510    52.9740 ha       301 FWZ       0.138000
    125 H66         71.5610    36.7290    50.9960 ha       301 FWZ       0.160000
@<TRIPOS>BOND
     1     1    15 1   
     2     1    31 1   
     3     1    67 1   
     4     2    15 1   
     5     2    17 1   
     6     2    18 2   
     7     3    16 1   
     8     3    68 1   
     9     3    69 1   
    10     3    70 1   
    11     4    16 1   
    12     4    71 1   
    13     4    72 1   
    14     4    73 1   
    15     5    16 1   
    16     5    74 1   
    17     5    75 1   
    18     5    76 1   
    19     6     8 1   
    20     6    17 1   
    21     6    19 1   
    22     6    77 1   
    23     7    17 1   
    24     7    20 1   
    25     7    78 1   
    26     7    79 1   
    27     8    22 2   
    28     8    23 1   
    29     9    10 ar  
    30     9    25 ar  
    31     9    37 1   
    32    10    11 ar  
    33    10    80 1   
    34    11    26 ar  
    35    11    27 1   
    36    12    25 ar  
    37    12    26 ar  
    38    12    81 1   
    39    13    27 2   
    40    13    28 1   
    41    13    30 1   
    42    14    28 2   
    43    14    29 1   
    44    14    82 1   
    45    15    16 1   
    46    15    83 1   
    47    19    20 1   
    48    19    84 1   
    49    19    85 1   
    50    20    21 1   
    51    20    86 1   
    52    21    87 1   
    53    23    24 1   
    54    23    88 1   
    55    24    25 1   
    56    24    89 1   
    57    24    90 1   
    58    26    91 1   
    59    27    29 1   
    60    30    92 1   
    61    30    93 1   
    62    30    94 1   
    63    31    32 1   
    64    31    33 2   
    65    32    34 1   
    66    32    35 1   
    67    32    36 1   
    68    35    36 1   
    69    35    95 1   
    70    35    96 1   
    71    36    97 1   
    72    36    98 1   
    73    37    38 1   
    74    38    39 1   
    75    38    99 1   
    76    38   100 1   
    77    39    61 1   
    78    39   101 1   
    79    39   102 1   
    80    40    41 1   
    81    40    64 1   
    82    40   103 1   
    83    40   104 1   
    84    41    42 1   
    85    41    46 1   
    86    41   105 1   
    87    42    43 1   
    88    42   106 1   
    89    42   107 1   
    90    43    44 1   
    91    43   108 1   
    92    43   109 1   
    93    44    45 1   
    94    44    47 1   
    95    45    46 1   
    96    45   110 1   
    97    45   111 1   
    98    46   112 1   
    99    46   113 1   
   100    47    48 ar  
   101    47    52 ar  
   102    48    49 ar  
   103    48   114 1   
   104    49    50 ar  
   105    49    54 1   
   106    50    51 ar  
   107    51    52 ar  
   108    52    53 1   
   109    53   115 1   
   110    53   116 1   
   111    54    55 ar  
   112    54    59 ar  
   113    55    56 ar  
   114    55    60 1   
   115    56    57 ar  
   116    56   117 1   
   117    57    58 ar  
   118    57   118 1   
   119    58    59 ar  
   120    58   119 1   
   121    59   120 1   
   122    60   121 1   
   123    61    62 ar  
   124    61    66 ar  
   125    62    63 ar  
   126    62   122 1   
   127    63    64 ar  
   128    63   123 1   
   129    64    65 ar  
   130    65    66 ar  
   131    65   124 1   
   132    66   125 1   
@<TRIPOS>SUBSTRUCTURE
     1 FWZ         1 TEMP              0 ****  ****    0 ROOT
