@<TRIPOS>MOLECULE
UNL
  104   110     1     0     0
SMALL
gas


@<TRIPOS>ATOM
      1 O           70.1820    42.3000    47.6220 os         1 UNL      -0.335670
      2 C           70.6700    41.0040    47.5220 c3         1 UNL       0.129859
      3 C1          69.7370    39.9900    48.1400 c          1 UNL       0.238195
      4 O1          69.9790    38.7730    47.9450 o          1 UNL      -0.275031
      5 N           68.6050    40.2840    48.9190 ns         1 UNL      -0.313412
      6 C2          67.6600    39.3890    49.4850 c3         1 UNL       0.011021
      7 C3          66.6690    40.1450    50.3320 c3         1 UNL      -0.037585
      8 C4          67.2210    40.7310    51.5730 c3         1 UNL      -0.051820
      9 C5          66.1470    41.5350    52.3240 c3         1 UNL      -0.053249
     10 C6          66.7090    41.9990    53.6350 c3         1 UNL      -0.053249
     11 C7          65.7770    42.9010    54.4080 c3         1 UNL      -0.051820
     12 C8          66.3610    43.2700    55.7310 c3         1 UNL      -0.037586
     13 C9          65.6320    44.2870    56.5230 c3         1 UNL       0.010936
     14 N1          66.3250    44.5120    57.7850 ns         1 UNL      -0.315355
     15 C10         65.8770    45.5630    58.7490 c          1 UNL       0.214248
     16 O2          64.9830    46.0930    58.2740 o          1 UNL      -0.277652
     17 C11         66.8000    45.4340    59.8980 c3         1 UNL       0.053980
     18 C12         68.0950    46.4020    59.7620 c3         1 UNL       0.117349
     19 C13         69.1000    45.8630    60.9110 cc         1 UNL       0.154824
     20 N2          68.8530    45.0220    61.8970 nd         1 UNL      -0.135240
     21 N3          69.9230    44.8910    62.5800 nd         1 UNL      -0.137859
     22 C14         70.8880    45.6480    62.0440 cc         1 UNL       0.126312
     23 C15         72.3130    45.7570    62.5940 c3         1 UNL      -0.005808
     24 N4          70.3670    46.2830    60.9610 na         1 UNL      -0.233685
     25 C16         70.8950    47.1750    60.0930 cc         1 UNL       0.087987
     26 C17         70.6560    47.2500    58.7130 cd         1 UNL       0.032980
     27 C18         69.8960    46.2440    58.0140 cf         1 UNL       0.075509
     28 N5          68.7260    45.8510    58.4890 n2         1 UNL      -0.272241
     29 C19         70.3450    45.6940    56.7770 ca         1 UNL       0.000500
     30 C20         71.6720    45.8640    56.3590 ca         1 UNL      -0.051329
     31 C21         72.1170    45.3200    55.1570 ca         1 UNL      -0.042855
     32 C22         71.2670    44.6110    54.3520 ca         1 UNL       0.040590
     33 C23         69.9280    44.4310    54.7380 ca         1 UNL      -0.042855
     34 C24         69.5120    44.9770    55.9350 ca         1 UNL      -0.051329
     35 Cl          71.8590    43.8930    52.8700 cl         1 UNL      -0.084350
     36 C25         71.2880    48.3710    58.1490 cd         1 UNL      -0.029589
     37 C26         72.0080    49.1500    59.0480 cc         1 UNL      -0.008353
     38 C27         72.8190    50.4300    58.7330 c3         1 UNL      -0.033021
     39 S           71.8960    48.4800    60.6340 ss         1 UNL      -0.077704
     40 C28         71.1660    48.7730    56.6660 c3         1 UNL      -0.038218
     41 C29         69.9960    42.9780    48.7740 ca         1 UNL       0.088968
     42 C30         70.3350    42.4960    50.0520 ca         1 UNL      -0.030904
     43 C31         70.0960    43.2820    51.2220 ca         1 UNL      -0.058828
     44 C32         69.5170    44.5510    51.1270 ca         1 UNL      -0.048653
     45 C33         69.1850    45.0180    49.8340 ca         1 UNL       0.052950
     46 C34         68.5270    46.2560    49.4120 c          1 UNL       0.253852
     47 O3          68.1320    47.2250    50.0970 o          1 UNL      -0.271185
     48 N6          68.4000    46.1900    48.0820 n          1 UNL      -0.220987
     49 C35         67.7460    47.0860    46.9810 c3         1 UNL       0.111246
     50 C36         68.1610    48.5520    47.4990 c          1 UNL       0.239300
     51 O4          69.1320    48.6590    48.1190 o          1 UNL      -0.275092
     52 N7          67.2990    49.6160    47.1550 ns         1 UNL      -0.254120
     53 C37         66.0440    49.3650    46.5540 c          1 UNL       0.218183
     54 O5          65.4770    50.3240    46.0250 o          1 UNL      -0.277296
     55 C38         65.4890    47.9660    46.5990 c3         1 UNL       0.027062
     56 C39         66.1960    47.1980    47.7180 c3         1 UNL      -0.016458
     57 C40         68.9230    44.9930    47.5090 c          1 UNL       0.256420
     58 O6          68.9670    44.6420    46.3450 o          1 UNL      -0.271077
     59 C41         69.4220    44.2490    48.6960 ca         1 UNL       0.080563
     60 H2          70.8030    40.7600    46.4680 h1         1 UNL       0.067439
     61 H3          71.6360    40.9490    48.0240 h1         1 UNL       0.067439
     62 HN          68.4420    41.2640    49.1010 hn         1 UNL       0.149408
     63 H22         68.1810    38.6600    50.1050 h1         1 UNL       0.046673
     64 H23         67.1300    38.8700    48.6860 h1         1 UNL       0.046673
     65 H32         66.2590    40.9560    49.7290 hc         1 UNL       0.028255
     66 H33         65.8570    39.4690    50.6000 hc         1 UNL       0.028255
     67 H42         68.0490    41.3930    51.3180 hc         1 UNL       0.026712
     68 H43         67.5860    39.9310    52.2170 hc         1 UNL       0.026712
     69 H52         65.2770    40.9030    52.5030 hc         1 UNL       0.026655
     70 H53         65.8540    42.3990    51.7270 hc         1 UNL       0.026655
     71 H62         66.9260    41.1230    54.2460 hc         1 UNL       0.026655
     72 H63         67.6400    42.5340    53.4480 hc         1 UNL       0.026655
     73 H72         65.6010    43.8090    53.8310 hc         1 UNL       0.026712
     74 H73         64.8290    42.3870    54.5660 hc         1 UNL       0.026712
     75 H82         67.3670    43.6500    55.5530 hc         1 UNL       0.028255
     76 H83         66.4410    42.3640    56.3320 hc         1 UNL       0.028255
     77 H92         64.6200    43.9340    56.7230 h1         1 UNL       0.046672
     78 H93         65.5870    45.2200    55.9620 h1         1 UNL       0.046672
     79 H1          67.1280    43.9440    58.0140 hn         1 UNL       0.149322
     80 H112        67.1410    44.4000    59.9590 hc         1 UNL       0.039176
     81 H113        66.2640    45.6850    60.8130 hc         1 UNL       0.039176
     82 H12         67.8930    47.4730    59.7690 h1         1 UNL       0.064028
     83 H20         72.3580    46.4240    56.9770 ha         1 UNL       0.063039
     84 H21         73.1450    45.4590    54.8560 ha         1 UNL       0.063868
     85 H231        69.2410    43.8790    54.1130 ha         1 UNL       0.063868
     86 H24         68.4830    44.8380    56.2310 ha         1 UNL       0.063039
     87 H30         70.7820    41.5180    50.1500 ha         1 UNL       0.065072
     88 H31         70.3660    42.8910    52.1920 ha         1 UNL       0.062394
     89 H321        69.3310    45.1510    52.0060 ha         1 UNL       0.063130
     90 H35         67.8400    46.8240    45.9270 h1         1 UNL       0.061307
     91 HN7         67.5820    50.5680    47.3400 hn         1 UNL       0.158624
     92 H382        64.4180    48.0020    46.7980 hc         1 UNL       0.036554
     93 H383        65.6680    47.4700    45.6450 hc         1 UNL       0.036554
     94 H392        65.7500    46.2190    47.8940 hc         1 UNL       0.029619
     95 H393        66.2360    47.7850    48.6360 hc         1 UNL       0.029619
     96 H281        70.9730    49.8430    56.5940 hc         1 UNL       0.028020
     97 H282        72.0950    48.5350    56.1480 hc         1 UNL       0.028020
     98 H283        70.3440    48.2240    56.2070 hc         1 UNL       0.028020
     99 H271        73.2930    50.7940    59.6440 hc         1 UNL       0.028527
    100 H272        72.1500    51.1960    58.3410 hc         1 UNL       0.028527
    101 H273        73.5840    50.2020    57.9910 hc         1 UNL       0.028527
    102 H151        72.5200    44.9040    63.2410 hc         1 UNL       0.031046
    103 H152        72.4120    46.6790    63.1660 hc         1 UNL       0.031046
    104 H153        73.0220    45.7650    61.7660 hc         1 UNL       0.031046
@<TRIPOS>BOND
     1     1     2 1   
     2     1    41 1   
     3     2     3 1   
     4     2    60 1   
     5     2    61 1   
     6     3     4 2   
     7     3     5 1   
     8     5     6 1   
     9     5    62 1   
    10     6     7 1   
    11     6    63 1   
    12     6    64 1   
    13     7     8 1   
    14     7    65 1   
    15     7    66 1   
    16     8     9 1   
    17     8    67 1   
    18     8    68 1   
    19     9    10 1   
    20     9    69 1   
    21     9    70 1   
    22    10    11 1   
    23    10    71 1   
    24    10    72 1   
    25    11    12 1   
    26    11    73 1   
    27    11    74 1   
    28    12    13 1   
    29    12    75 1   
    30    12    76 1   
    31    13    14 1   
    32    13    77 1   
    33    13    78 1   
    34    14    15 1   
    35    14    79 1   
    36    15    16 2   
    37    15    17 1   
    38    17    18 1   
    39    17    80 1   
    40    17    81 1   
    41    18    19 1   
    42    18    28 1   
    43    18    82 1   
    44    19    20 2   
    45    19    24 1   
    46    20    21 1   
    47    21    22 2   
    48    22    23 1   
    49    22    24 1   
    50    23   102 1   
    51    23   103 1   
    52    23   104 1   
    53    24    25 1   
    54    25    26 2   
    55    25    39 1   
    56    26    27 1   
    57    26    36 1   
    58    27    28 2   
    59    27    29 1   
    60    29    30 ar  
    61    29    34 ar  
    62    30    31 ar  
    63    30    83 1   
    64    31    32 ar  
    65    31    84 1   
    66    32    33 ar  
    67    32    35 1   
    68    33    34 ar  
    69    33    85 1   
    70    34    86 1   
    71    36    37 2   
    72    36    40 1   
    73    37    38 1   
    74    37    39 1   
    75    38    99 1   
    76    38   100 1   
    77    38   101 1   
    78    40    96 1   
    79    40    97 1   
    80    40    98 1   
    81    41    42 ar  
    82    41    59 ar  
    83    42    43 ar  
    84    42    87 1   
    85    43    44 ar  
    86    43    88 1   
    87    44    45 ar  
    88    44    89 1   
    89    45    46 1   
    90    45    59 ar  
    91    46    47 2   
    92    46    48 1   
    93    48    49 1   
    94    48    57 1   
    95    49    50 1   
    96    49    56 1   
    97    49    90 1   
    98    50    51 2   
    99    50    52 1   
   100    52    53 1   
   101    52    91 1   
   102    53    54 2   
   103    53    55 1   
   104    55    56 1   
   105    55    92 1   
   106    55    93 1   
   107    56    94 1   
   108    56    95 1   
   109    57    58 2   
   110    57    59 1   
@<TRIPOS>SUBSTRUCTURE
     1 UNL         1 TEMP              0 ****  ****    0 ROOT
