@<TRIPOS>MOLECULE
RN6
  104   110     1     0     0
SMALL
bcc


@<TRIPOS>ATOM
      1 N           76.7220    32.8550    57.5780 nc       502 RN6      -0.337000
      2 C           75.4010    34.6710    58.6480 c3       502 RN6      -0.124400
      3 O           68.8620    41.5050    48.2970 os       502 RN6      -0.340900
      4 C1          75.7280    33.7060    57.5680 cd       502 RN6       0.379800
      5 C10         72.9200    35.2370    49.0230 c3       502 RN6      -0.081400
      6 C11         73.1470    36.7300    48.8150 c3       502 RN6      -0.077400
      7 C12         71.9630    37.6380    49.1420 c3       502 RN6      -0.104400
      8 C13         70.9110    37.6760    48.0500 c3       502 RN6       0.080000
      9 C14         70.7700    40.1080    47.7140 c        502 RN6       0.643100
     10 C15         69.8670    41.2560    47.3260 c3       502 RN6       0.051400
     11 C16         69.1470    42.3920    49.3000 ca       502 RN6       0.194100
     12 C17         69.6710    42.0020    50.5230 ca       502 RN6      -0.132000
     13 C18         69.8760    42.9450    51.5150 ca       502 RN6      -0.093000
     14 C19         69.5620    44.2740    51.2950 ca       502 RN6      -0.079000
     15 C2          75.6900    32.6030    55.6680 cd       502 RN6       0.360800
     16 C20         69.0420    44.6530    50.0610 ca       502 RN6      -0.110600
     17 C21         68.6130    45.9900    49.5850 c        502 RN6       0.731100
     18 C22         67.5930    46.8610    47.4370 c3       502 RN6       0.057700
     19 C23         68.3930    48.1480    47.5160 c        502 RN6       0.683500
     20 C24         66.3640    49.4780    47.1510 c        502 RN6       0.703500
     21 C25         65.5530    48.2230    47.0480 c3       502 RN6      -0.154400
     22 C26         66.1400    47.0720    47.8510 c3       502 RN6      -0.096400
     23 C27         68.8320    43.7380    49.0440 ca       502 RN6      -0.195600
     24 C28         68.2720    44.4640    47.8740 c        502 RN6       0.743100
     25 C29         74.8330    34.4330    53.6010 ce       502 RN6       0.564500
     26 C3          75.2760    32.2180    54.2650 c3       502 RN6       0.116200
     27 C30         75.1530    35.6020    52.7550 ca       502 RN6      -0.134900
     28 C31         74.8930    36.8990    53.1860 ca       502 RN6      -0.096500
     29 C32         75.2230    37.9860    52.3970 ca       502 RN6      -0.131000
     30 C33         75.8170    37.7720    51.1730 ca       502 RN6       0.026400
     31 C34         76.0890    36.5000    50.7220 ca       502 RN6      -0.131000
     32 C35         75.7540    35.4180    51.5150 ca       502 RN6      -0.096500
     33 C36         73.7180    34.5670    54.5710 cc       502 RN6      -0.214900
     34 C37         73.8740    34.2040    55.8890 cd       502 RN6      -0.011300
     35 C38         71.6050    35.0640    55.4220 cd       502 RN6      -0.118400
     36 C39         70.1790    35.4990    55.5750 c3       502 RN6      -0.025800
     37 C4          75.9050    30.9250    53.7320 c3       502 RN6      -0.132400
     38 C40         72.3820    35.0500    54.3060 cc       502 RN6      -0.057300
     39 C41         71.8610    35.4410    52.9550 c3       502 RN6      -0.040800
     40 C5          75.3750    30.6010    52.3520 c        502 RN6       0.658100
     41 C6          75.6200    30.9860    49.9480 c3       502 RN6       0.084000
     42 C7          75.4880    32.2690    49.1500 c3       502 RN6      -0.103400
     43 C8          74.2150    33.0540    49.4300 c3       502 RN6      -0.083400
     44 C9          74.1340    34.3800    48.6840 c3       502 RN6      -0.081400
     45 N1          76.7000    32.1520    56.3760 nc       502 RN6      -0.328000
     46 N2          75.9720    31.2280    51.3400 ns       502 RN6      -0.555900
     47 N3          70.1860    38.9390    47.9840 ns       502 RN6      -0.549900
     48 N4          68.1610    45.8030    48.2730 n        502 RN6      -0.512400
     49 N5          67.7090    49.3320    47.3730 ns       502 RN6      -0.594500
     50 N6          75.5520    33.3890    53.4210 n2       502 RN6      -0.596900
     51 N7          75.0320    33.5840    56.3820 na       502 RN6      -0.240800
     52 O1          65.8690    50.5980    47.0500 o        502 RN6      -0.599500
     53 O2          69.6080    48.1360    47.6860 o        502 RN6      -0.594500
     54 O3          68.6170    47.0530    50.1800 o        502 RN6      -0.560500
     55 O4          67.9660    44.0350    46.7770 o        502 RN6      -0.579500
     56 O5          71.9860    40.2790    47.7370 o        502 RN6      -0.596100
     57 O6          74.4490    29.8110    52.1910 o        502 RN6      -0.620100
     58 S           72.4510    34.4740    56.8220 ss       502 RN6       0.061200
     59 Cl          76.2300    39.1370    50.1740 cl       502 RN6      -0.086400
     60 H1          76.2720    34.8080    59.2890 hc       502 RN6       0.066700
     61 H2          75.1200    35.6280    58.2070 hc       502 RN6       0.066700
     62 H3          74.5710    34.2860    59.2400 hc       502 RN6       0.066700
     63 H102        72.0900    34.9240    48.3900 hc       502 RN6       0.041200
     64 H103        72.6500    35.0650    50.0650 hc       502 RN6       0.041200
     65 H112        73.9830    37.0310    49.4460 hc       502 RN6       0.044700
     66 H113        73.4270    36.8930    47.7740 hc       502 RN6       0.044700
     67 H122        72.3370    38.6500    49.2960 hc       502 RN6       0.043200
     68 H123        71.4990    37.2910    50.0650 hc       502 RN6       0.043200
     69 H132        70.1940    36.8760    48.2340 h1       502 RN6       0.066200
     70 H133        71.3950    37.4990    47.0900 h1       502 RN6       0.066200
     71 H152        69.3860    41.0180    46.3770 h1       502 RN6       0.097200
     72 H153        70.4700    42.1550    47.2020 h1       502 RN6       0.097200
     73 H17         69.9180    40.9660    50.7010 ha       502 RN6       0.159000
     74 H18         70.2840    42.6410    52.4680 ha       502 RN6       0.150000
     75 H19         69.7180    45.0080    52.0710 ha       502 RN6       0.165000
     76 H22         67.6040    46.5180    46.4020 h1       502 RN6       0.109700
     77 H252        64.5480    48.4270    47.4170 hc       502 RN6       0.088700
     78 H253        65.4920    47.9270    46.0010 hc       502 RN6       0.088700
     79 H262        65.5700    46.1640    47.6560 hc       502 RN6       0.080700
     80 H263        66.0950    47.3090    48.9140 hc       502 RN6       0.080700
     81 H31         74.1960    32.0730    54.2740 h1       502 RN6       0.082700
     82 H311        74.4280    37.0590    54.1480 ha       502 RN6       0.150500
     83 H32         75.0170    38.9900    52.7370 ha       502 RN6       0.151000
     84 H34         76.5580    36.3490    49.7610 ha       502 RN6       0.151000
     85 H35         75.9620    34.4170    51.1670 ha       502 RN6       0.150500
     86 H391        69.8790    35.4020    56.6180 hc       502 RN6       0.053367
     87 H392        70.0810    36.5390    55.2640 hc       502 RN6       0.053367
     88 H393        69.5390    34.8730    54.9530 hc       502 RN6       0.053367
     89 H42         75.6650    30.1050    54.4090 hc       502 RN6       0.092700
     90 H43         76.9870    31.0450    53.6830 hc       502 RN6       0.092700
     91 H411        72.6520    35.3290    52.2140 hc       502 RN6       0.054367
     92 H412        71.0210    34.7990    52.6900 hc       502 RN6       0.054367
     93 H413        71.5300    36.4790    52.9800 hc       502 RN6       0.054367
     94 H62         76.3960    30.3700    49.4930 h1       502 RN6       0.061200
     95 H63         74.6730    30.4470    49.9110 h1       502 RN6       0.061200
     96 H72         75.5060    32.0150    48.0900 hc       502 RN6       0.043700
     97 H73         76.3450    32.9060    49.3700 hc       502 RN6       0.043700
     98 H82         73.3620    32.4420    49.1360 hc       502 RN6       0.049200
     99 H83         74.1530    33.2500    50.5000 hc       502 RN6       0.049200
    100 H92         74.1090    34.1660    47.6160 hc       502 RN6       0.038200
    101 H93         75.0350    34.9550    48.9010 hc       502 RN6       0.038200
    102 H21         76.6980    31.8990    51.5460 hn       502 RN6       0.319500
    103 HN3         69.1900    38.9290    48.1510 hn       502 RN6       0.314500
    104 H5          68.2530    50.1810    47.4380 hn       502 RN6       0.341500
@<TRIPOS>BOND
     1     1     4 2   
     2     1    45 1   
     3     2     4 1   
     4     2    60 1   
     5     2    61 1   
     6     2    62 1   
     7     3    10 1   
     8     3    11 1   
     9     4    51 1   
    10     5     6 1   
    11     5    44 1   
    12     5    63 1   
    13     5    64 1   
    14     6     7 1   
    15     6    65 1   
    16     6    66 1   
    17     7     8 1   
    18     7    67 1   
    19     7    68 1   
    20     8    47 1   
    21     8    69 1   
    22     8    70 1   
    23     9    10 1   
    24     9    47 1   
    25     9    56 2   
    26    10    71 1   
    27    10    72 1   
    28    11    12 ar  
    29    11    23 ar  
    30    12    13 ar  
    31    12    73 1   
    32    13    14 ar  
    33    13    74 1   
    34    14    16 ar  
    35    14    75 1   
    36    15    26 1   
    37    15    45 2   
    38    15    51 1   
    39    16    17 1   
    40    16    23 ar  
    41    17    48 1   
    42    17    54 2   
    43    18    19 1   
    44    18    22 1   
    45    18    48 1   
    46    18    76 1   
    47    19    49 1   
    48    19    53 2   
    49    20    21 1   
    50    20    49 1   
    51    20    52 2   
    52    21    22 1   
    53    21    77 1   
    54    21    78 1   
    55    22    79 1   
    56    22    80 1   
    57    23    24 1   
    58    24    48 1   
    59    24    55 2   
    60    25    27 1   
    61    25    33 1   
    62    25    50 2   
    63    26    37 1   
    64    26    50 1   
    65    26    81 1   
    66    27    28 ar  
    67    27    32 ar  
    68    28    29 ar  
    69    28    82 1   
    70    29    30 ar  
    71    29    83 1   
    72    30    31 ar  
    73    30    59 1   
    74    31    32 ar  
    75    31    84 1   
    76    32    85 1   
    77    33    34 2   
    78    33    38 1   
    79    34    51 1   
    80    34    58 1   
    81    35    36 1   
    82    35    38 2   
    83    35    58 1   
    84    36    86 1   
    85    36    87 1   
    86    36    88 1   
    87    37    40 1   
    88    37    89 1   
    89    37    90 1   
    90    38    39 1   
    91    39    91 1   
    92    39    92 1   
    93    39    93 1   
    94    40    46 1   
    95    40    57 2   
    96    41    42 1   
    97    41    46 1   
    98    41    94 1   
    99    41    95 1   
   100    42    43 1   
   101    42    96 1   
   102    42    97 1   
   103    43    44 1   
   104    43    98 1   
   105    43    99 1   
   106    44   100 1   
   107    44   101 1   
   108    46   102 1   
   109    47   103 1   
   110    49   104 1   
@<TRIPOS>SUBSTRUCTURE
     1 RN6         1 TEMP              0 ****  ****    0 ROOT
