@<TRIPOS>MOLECULE
LFE
  145   152     1     0     0
SMALL
bcc


@<TRIPOS>ATOM
      1 CAW         22.1520   -29.4960   -17.9900 c3       301 LFE       0.061700
      2 C13         23.7320   -26.4670   -18.5340 c3       301 LFE       0.117400
      3 C17         27.9540   -26.7040   -20.9320 c3       301 LFE       0.123400
      4 CAY         24.0200   -27.8880   -14.9520 c3       301 LFE       0.120400
      5 CAZ         23.7380   -28.2940   -13.4580 c3       301 LFE       0.083400
      6 CBA         24.8330   -28.1320   -11.1470 c3       301 LFE       0.127400
      7 CBT         28.6310   -26.7180    -8.9470 c        301 LFE       0.627100
      8 CAB         22.2640   -38.6000   -14.2810 c3       301 LFE      -0.126400
      9 CCB         21.9540   -37.4330   -15.2530 cc       301 LFE       0.379800
     10 NBJ         21.7080   -37.5740   -16.5930 nd       301 LFE      -0.339000
     11 NBK         21.4660   -36.2830   -17.1540 nd       301 LFE      -0.327000
     12 CCG         21.5690   -35.4120   -16.1640 cc       301 LFE       0.358800
     13 CCL         21.3960   -33.7730   -16.2280 c3       301 LFE       0.114200
     14 CBE         21.3060   -33.2830   -17.6950 c3       301 LFE      -0.132400
     15 CBU         20.9170   -31.7260   -17.8140 c        301 LFE       0.666100
     16 NBL         21.8670   -30.9110   -18.4460 ns       301 LFE      -0.544900
     17 C11         22.8850   -28.7040   -19.1030 c3       301 LFE       0.122400
     18 O12         22.6220   -27.2980   -18.9290 os       301 LFE      -0.412600
     19 C14         24.4790   -25.9720   -19.7900 c3       301 LFE       0.100400
     20 O15         25.6990   -26.7180   -19.9650 os       301 LFE      -0.420600
     21 C16         26.4710   -26.2910   -21.1050 c3       301 LFE       0.096400
     22 O18         28.5380   -26.0760   -19.7680 os       301 LFE      -0.326900
     23 CAX         22.9420   -29.4440   -16.6340 c3       301 LFE       0.098400
     24 OBO         22.9400   -28.1650   -15.9200 os       301 LFE      -0.420600
     25 OBP         24.9160   -28.0110   -12.6170 os       301 LFE      -0.441600
     26 CBB         26.2410   -27.8640   -10.4960 c3       301 LFE       0.085400
     27 OBQ         26.2670   -27.6610    -9.0250 os       301 LFE      -0.420600
     28 CBD         27.5530   -27.5670    -8.2500 c3       301 LFE       0.060400
     29 NBN         29.0000   -27.1420   -10.1730 ns       301 LFE      -0.553900
     30 CCN         29.9810   -26.4460   -11.0270 c3       301 LFE       0.050700
     31 CCQ         31.1430   -27.3900   -11.4450 c3       301 LFE      -0.049000
     32 CAE         32.1170   -26.6380   -12.3700 c3       301 LFE      -0.097767
     33 CAG         30.6410   -28.6810   -12.1450 c3       301 LFE      -0.097767
     34 CAF         31.9140   -27.8350   -10.1960 c3       301 LFE      -0.097767
     35 CBW         29.1500   -25.9140   -12.2310 c        301 LFE       0.652100
     36 N           29.3680   -24.6630   -12.6910 n        301 LFE      -0.453800
     37 CD2         30.3020   -23.5760   -12.2590 c3       301 LFE       0.080000
     38 CG          29.6240   -22.2800   -12.7210 c3       301 LFE       0.132100
     39 OD1         28.6250   -21.8320   -11.7920 oh       301 LFE      -0.592800
     40 CB          28.9480   -22.6660   -13.9970 c3       301 LFE      -0.124400
     41 CA          28.5010   -24.1250   -13.8260 c3       301 LFE       0.034700
     42 C           28.6600   -24.7860   -15.0640 c        301 LFE       0.649100
     43 NBM         27.6050   -24.7730   -15.9160 ns       301 LFE      -0.550900
     44 CBC         27.7070   -25.3680   -17.2510 c3       301 LFE       0.145300
     45 CCA         27.9390   -24.3490   -18.2270 ca       301 LFE      -0.141300
     46 CAP         28.4040   -24.7300   -19.4880 ca       301 LFE       0.134100
     47 CAT         28.6580   -23.7910   -20.4870 ca       301 LFE      -0.196000
     48 CCF         28.4580   -22.4180   -20.2670 ca       301 LFE       0.031000
     49 CCH         28.6890   -21.5030   -21.2360 cc       301 LFE      -0.150400
     50 CBZ         28.2920   -21.5810   -22.5250 cd       301 LFE       0.356600
     51 CAA         27.5100   -22.7410   -23.1520 c3       301 LFE      -0.129400
     52 NBI         28.6460   -20.5400   -23.2990 nd       301 LFE      -0.627000
     53 CAV         29.3350   -19.5810   -22.6740 cc       301 LFE       0.367300
     54 SBR         29.5180   -20.0350   -21.0820 ss       301 LFE      -0.083300
     55 CAU         28.0000   -22.0330   -19.0060 ca       301 LFE      -0.160000
     56 CAQ         27.7420   -22.9800   -18.0010 ca       301 LFE      -0.079000
     57 O           29.7500   -25.2570   -15.3690 o        301 LFE      -0.625100
     58 OAK         28.2820   -26.6270   -12.7230 o        301 LFE      -0.639100
     59 OAH         29.1330   -25.7760    -8.3470 o        301 LFE      -0.614100
     60 OAI         20.4130   -31.1630   -16.8860 o        301 LFE      -0.618100
     61 NBH         22.4730   -33.1180   -15.6160 n2       301 LFE      -0.591900
     62 CBX         23.2880   -33.5720   -14.5720 ce       301 LFE       0.562500
     63 CCE         24.6650   -32.9100   -14.3410 ca       301 LFE      -0.135900
     64 CAS         24.8760   -31.5520   -14.7180 ca       301 LFE      -0.097000
     65 CAO         26.1210   -30.9600   -14.5040 ca       301 LFE      -0.131500
     66 CBY         27.1490   -31.6770   -13.9280 ca       301 LFE       0.023400
     67 CL1         28.7280   -30.9070   -13.6630 cl       301 LFE      -0.090400
     68 CAN         26.9400   -33.0350   -13.5490 ca       301 LFE      -0.131500
     69 CAR         25.6940   -33.6340   -13.7620 ca       301 LFE      -0.097000
     70 CCI         22.6710   -34.3080   -13.4930 cc       301 LFE      -0.212900
     71 CCJ         22.0500   -35.4540   -13.7220 cd       301 LFE      -0.012300
     72 SBS         21.3850   -36.1450   -12.3460 ss       301 LFE       0.062200
     73 CCC         21.8490   -35.0460   -11.2860 cd       301 LFE      -0.119400
     74 CAC         21.5410   -35.1180    -9.7850 c3       301 LFE      -0.025800
     75 CCD         22.5820   -33.9990   -11.9570 cc       301 LFE      -0.058300
     76 CAD         23.2010   -32.7570   -11.3060 c3       301 LFE      -0.042800
     77 NCP         21.8730   -36.0810   -14.9570 na       301 LFE      -0.238800
     78 HAW         21.1830   -29.0030   -17.8300 h1       301 LFE       0.106700
     79 H132        24.4140   -26.9920   -17.8540 h1       301 LFE       0.069200
     80 H133        23.3390   -25.5920   -18.0010 h1       301 LFE       0.069200
     81 H172        28.5140   -26.4130   -21.8290 h1       301 LFE       0.073200
     82 H173        28.0210   -27.7940   -20.8330 h1       301 LFE       0.073200
     83 HAY2        24.9530   -28.3470   -15.2940 h1       301 LFE       0.072200
     84 HAY3        24.1950   -26.8050   -14.9550 h1       301 LFE       0.072200
     85 HAZ2        23.4870   -29.3600   -13.4060 h1       301 LFE       0.054700
     86 HAZ3        22.8750   -27.7210   -13.0960 h1       301 LFE       0.054700
     87 HBA2        24.4950   -29.1380   -10.8700 h1       301 LFE       0.062200
     88 HBA3        24.1120   -27.4040   -10.7560 h1       301 LFE       0.062200
     89 HAB1        22.5710   -39.4770   -14.8510 hc       301 LFE       0.067033
     90 HAB2        23.0680   -38.3060   -13.6060 hc       301 LFE       0.067033
     91 HAB3        21.3720   -38.8370   -13.7020 hc       301 LFE       0.067033
     92 HCL         20.4780   -33.4970   -15.7100 h1       301 LFE       0.084700
     93 HBE2        20.5480   -33.8710   -18.2120 hc       301 LFE       0.091200
     94 HBE3        22.2690   -33.4440   -18.1800 hc       301 LFE       0.091200
     95 HBL         22.5310   -31.3540   -19.0690 hn       301 LFE       0.314500
     96 H112        23.9610   -28.9250   -19.1000 h1       301 LFE       0.066200
     97 H113        22.4810   -29.0090   -20.0760 h1       301 LFE       0.066200
     98 H142        23.8320   -26.0700   -20.6710 h1       301 LFE       0.036200
     99 H143        24.7190   -24.9090   -19.6590 h1       301 LFE       0.036200
    100 H162        26.4140   -25.2020   -21.2280 h1       301 LFE       0.039700
    101 H163        26.0680   -26.7520   -22.0160 h1       301 LFE       0.039700
    102 HAX2        23.9740   -29.7490   -16.8460 h1       301 LFE       0.039200
    103 HAX3        22.4740   -30.1780   -15.9710 h1       301 LFE       0.039200
    104 HBB2        26.6160   -26.9500   -10.9670 h1       301 LFE       0.043700
    105 HBB3        26.9030   -28.6940   -10.7730 h1       301 LFE       0.043700
    106 HBD2        27.9500   -28.5810    -8.1150 h1       301 LFE       0.086200
    107 HBD3        27.3410   -27.1590    -7.2540 h1       301 LFE       0.086200
    108 HBN         28.5790   -27.9880   -10.5280 hn       301 LFE       0.336500
    109 HCN         30.3920   -25.5990   -10.4770 h1       301 LFE       0.102700
    110 HAE1        31.5890   -26.3120   -13.2660 hc       301 LFE       0.044367
    111 HAE2        32.9350   -27.3010   -12.6510 hc       301 LFE       0.044367
    112 HAE3        32.5170   -25.7690   -11.8470 hc       301 LFE       0.044367
    113 HAG1        30.0840   -28.4140   -13.0440 hc       301 LFE       0.044367
    114 HAG2        31.4940   -29.3020   -12.4180 hc       301 LFE       0.044367
    115 HAG3        29.9920   -29.2330   -11.4660 hc       301 LFE       0.044367
    116 HAF1        32.2880   -26.9580    -9.6680 hc       301 LFE       0.044367
    117 HAF2        31.2490   -28.3970    -9.5400 hc       301 LFE       0.044367
    118 HAF3        32.7520   -28.4660   -10.4910 hc       301 LFE       0.044367
    119 HD22        30.4250   -23.5820   -11.1760 h1       301 LFE       0.076200
    120 HD23        31.2690   -23.6920   -12.7500 h1       301 LFE       0.076200
    121 HG          30.3640   -21.5000   -12.8970 h1       301 LFE       0.056700
    122 HD1         28.8280   -20.9360   -11.5110 ho       301 LFE       0.406000
    123 HB2         28.0850   -22.0250   -14.1760 hc       301 LFE       0.080200
    124 HB3         29.6490   -22.5860   -14.8280 hc       301 LFE       0.080200
    125 HA          27.4530   -24.1530   -13.5300 h1       301 LFE       0.083700
    126 HBM         26.7370   -24.3460   -15.6260 hn       301 LFE       0.340500
    127 HBC2        26.7780   -25.8870   -17.4860 h1       301 LFE       0.069700
    128 HBC3        28.5320   -26.0800   -17.2680 h1       301 LFE       0.069700
    129 HAT         29.0160   -24.1260   -21.4500 ha       301 LFE       0.143000
    130 HAA1        27.0820   -22.4190   -24.1020 hc       301 LFE       0.054033
    131 HAA2        26.7100   -23.0460   -22.4780 hc       301 LFE       0.054033
    132 HAA3        28.1820   -23.5820   -23.3230 hc       301 LFE       0.054033
    133 HAV         29.7080   -18.6720   -23.1220 h5       301 LFE       0.055100
    134 HAU         27.8410   -20.9850   -18.7990 ha       301 LFE       0.140000
    135 HAQ         27.3850   -22.6470   -17.0370 ha       301 LFE       0.162000
    136 HAS         24.0750   -30.9830   -15.1680 ha       301 LFE       0.153500
    137 HAO         26.2810   -29.9310   -14.7920 ha       301 LFE       0.153000
    138 HAN         27.7420   -33.6000   -13.0980 ha       301 LFE       0.153000
    139 HAR         25.5340   -34.6630   -13.4750 ha       301 LFE       0.153500
    140 HAC1        20.9710   -36.0230    -9.5740 hc       301 LFE       0.053367
    141 HAC2        20.9590   -34.2450    -9.4920 hc       301 LFE       0.053367
    142 HAC3        22.4750   -35.1380    -9.2230 hc       301 LFE       0.053367
    143 HAD1        23.6910   -32.1520   -12.0690 hc       301 LFE       0.053700
    144 HAD2        22.4180   -32.1700   -10.8260 hc       301 LFE       0.053700
    145 HAD3        23.9340   -33.0650   -10.5600 hc       301 LFE       0.053700
@<TRIPOS>BOND
     1     1    16 1   
     2     1    17 1   
     3     1    23 1   
     4     1    78 1   
     5     2    18 1   
     6     2    19 1   
     7     2    79 1   
     8     2    80 1   
     9     3    21 1   
    10     3    22 1   
    11     3    81 1   
    12     3    82 1   
    13     4     5 1   
    14     4    24 1   
    15     4    83 1   
    16     4    84 1   
    17     5    25 1   
    18     5    85 1   
    19     5    86 1   
    20     6    25 1   
    21     6    26 1   
    22     6    87 1   
    23     6    88 1   
    24     7    28 1   
    25     7    29 1   
    26     7    59 2   
    27     8     9 1   
    28     8    89 1   
    29     8    90 1   
    30     8    91 1   
    31     9    10 2   
    32     9    77 1   
    33    10    11 1   
    34    11    12 2   
    35    12    13 1   
    36    12    77 1   
    37    13    14 1   
    38    13    61 1   
    39    13    92 1   
    40    14    15 1   
    41    14    93 1   
    42    14    94 1   
    43    15    16 1   
    44    15    60 2   
    45    16    95 1   
    46    17    18 1   
    47    17    96 1   
    48    17    97 1   
    49    19    20 1   
    50    19    98 1   
    51    19    99 1   
    52    20    21 1   
    53    21   100 1   
    54    21   101 1   
    55    22    46 1   
    56    23    24 1   
    57    23   102 1   
    58    23   103 1   
    59    26    27 1   
    60    26   104 1   
    61    26   105 1   
    62    27    28 1   
    63    28   106 1   
    64    28   107 1   
    65    29    30 1   
    66    29   108 1   
    67    30    31 1   
    68    30    35 1   
    69    30   109 1   
    70    31    32 1   
    71    31    33 1   
    72    31    34 1   
    73    32   110 1   
    74    32   111 1   
    75    32   112 1   
    76    33   113 1   
    77    33   114 1   
    78    33   115 1   
    79    34   116 1   
    80    34   117 1   
    81    34   118 1   
    82    35    36 1   
    83    35    58 2   
    84    36    37 1   
    85    36    41 1   
    86    37    38 1   
    87    37   119 1   
    88    37   120 1   
    89    38    39 1   
    90    38    40 1   
    91    38   121 1   
    92    39   122 1   
    93    40    41 1   
    94    40   123 1   
    95    40   124 1   
    96    41    42 1   
    97    41   125 1   
    98    42    43 1   
    99    42    57 2   
   100    43    44 1   
   101    43   126 1   
   102    44    45 1   
   103    44   127 1   
   104    44   128 1   
   105    45    46 ar  
   106    45    56 ar  
   107    46    47 ar  
   108    47    48 ar  
   109    47   129 1   
   110    48    49 1   
   111    48    55 ar  
   112    49    50 2   
   113    49    54 1   
   114    50    51 1   
   115    50    52 1   
   116    51   130 1   
   117    51   131 1   
   118    51   132 1   
   119    52    53 2   
   120    53    54 1   
   121    53   133 1   
   122    55    56 ar  
   123    55   134 1   
   124    56   135 1   
   125    61    62 2   
   126    62    63 1   
   127    62    70 1   
   128    63    64 ar  
   129    63    69 ar  
   130    64    65 ar  
   131    64   136 1   
   132    65    66 ar  
   133    65   137 1   
   134    66    67 1   
   135    66    68 ar  
   136    68    69 ar  
   137    68   138 1   
   138    69   139 1   
   139    70    71 2   
   140    70    75 1   
   141    71    72 1   
   142    71    77 1   
   143    72    73 1   
   144    73    74 1   
   145    73    75 2   
   146    74   140 1   
   147    74   141 1   
   148    74   142 1   
   149    75    76 1   
   150    76   143 1   
   151    76   144 1   
   152    76   145 1   
@<TRIPOS>SUBSTRUCTURE
     1 LFE         1 TEMP              0 ****  ****    0 ROOT
