@<TRIPOS>MOLECULE
UNL
  104   110     1     0     0
SMALL
gas


@<TRIPOS>ATOM
      1 O           68.9790    45.2550    52.2310 os         1 UNL      -0.335670
      2 C           68.9590    44.2650    53.4190 c3         1 UNL       0.129859
      3 C1          67.8680    43.3430    52.9240 c          1 UNL       0.238195
      4 O1          67.1930    43.8420    51.9090 o          1 UNL      -0.275031
      5 N           67.3900    42.0750    53.2550 ns         1 UNL      -0.313412
      6 C2          66.3420    41.5350    52.3310 c3         1 UNL       0.011021
      7 C3          65.7730    40.2330    52.5910 c3         1 UNL      -0.037585
      8 C4          65.0250    39.8120    51.3050 c3         1 UNL      -0.051820
      9 C5          64.3940    38.4770    51.3770 c3         1 UNL      -0.053249
     10 C6          63.9740    37.8950    50.0250 c3         1 UNL      -0.053249
     11 C7          63.4120    36.4920    50.2050 c3         1 UNL      -0.051820
     12 C8          63.4100    35.7620    48.8820 c3         1 UNL      -0.037586
     13 C9          62.9750    34.3100    49.0720 c3         1 UNL       0.010936
     14 N1          63.2450    33.4530    48.1120 ns         1 UNL      -0.315355
     15 C10         63.5180    32.5850    47.1380 c          1 UNL       0.214248
     16 O2          62.9850    32.7080    46.0460 o          1 UNL      -0.277652
     17 C11         64.5300    31.3870    47.3170 c3         1 UNL       0.053980
     18 C12         65.5230    31.8820    48.4380 c3         1 UNL       0.117349
     19 C13         66.6760    30.8330    48.6810 cc         1 UNL       0.154824
     20 N2          66.8860    29.6690    48.0910 nd         1 UNL      -0.135240
     21 N3          67.9070    29.1450    48.6330 nd         1 UNL      -0.137859
     22 C14         68.3820    29.9610    49.5870 cc         1 UNL       0.126312
     23 C15         69.6120    29.6680    50.4600 c3         1 UNL      -0.005808
     24 N4          67.6000    31.0580    49.6330 na         1 UNL      -0.233685
     25 C16         67.6110    32.1600    50.4270 cc         1 UNL       0.087987
     26 C17         67.3100    33.4660    50.0340 cd         1 UNL       0.032980
     27 C18         67.0630    33.8280    48.6650 cf         1 UNL       0.075509
     28 N5          66.2270    33.0950    47.8970 n2         1 UNL      -0.272241
     29 C19         67.6080    35.0030    48.0980 ca         1 UNL       0.000500
     30 C20         67.1790    35.5230    46.8830 ca         1 UNL      -0.051329
     31 C21         67.8140    36.6240    46.2970 ca         1 UNL      -0.042855
     32 C22         68.8900    37.2190    46.9160 ca         1 UNL       0.040590
     33 C23         69.3390    36.7260    48.1150 ca         1 UNL      -0.042855
     34 C24         68.7090    35.6290    48.7100 ca         1 UNL      -0.051329
     35 Cl          69.7110    38.6060    46.2320 cl         1 UNL      -0.084350
     36 C25         67.3330    34.3410    51.1500 cd         1 UNL      -0.029589
     37 C26         67.6460    33.7400    52.3700 cc         1 UNL      -0.008353
     38 C27         67.7490    34.4400    53.7490 c3         1 UNL      -0.033021
     39 S           67.9150    32.0590    52.1360 ss         1 UNL      -0.077704
     40 C28         67.0160    35.8310    51.0800 c3         1 UNL      -0.038218
     41 C29         69.3330    44.5380    51.1690 ca         1 UNL       0.088968
     42 C30         69.9070    43.2710    51.2890 ca         1 UNL      -0.030904
     43 C31         70.2750    42.4990    50.1170 ca         1 UNL      -0.058828
     44 C32         70.0600    43.0080    48.8260 ca         1 UNL      -0.048653
     45 C33         69.4930    44.2720    48.7280 ca         1 UNL       0.052950
     46 C34         69.0330    45.0230    47.5270 c          1 UNL       0.253852
     47 O3          69.1480    44.6880    46.3640 o          1 UNL      -0.271185
     48 N6          68.4350    46.2030    48.0940 n          1 UNL      -0.220987
     49 C35         67.8100    47.0760    46.9250 c3         1 UNL       0.111246
     50 C36         68.1770    48.5380    47.5070 c          1 UNL       0.239300
     51 O4          69.1050    48.6670    48.1940 o          1 UNL      -0.275092
     52 N7          67.3270    49.6150    47.1400 ns         1 UNL      -0.254120
     53 C37         66.0910    49.3530    46.4820 c          1 UNL       0.218183
     54 O5          65.5330    50.3110    45.9410 o          1 UNL      -0.277296
     55 C38         65.5560    47.9480    46.4900 c3         1 UNL       0.027062
     56 C39         66.2290    47.1750    47.6370 c3         1 UNL      -0.016458
     57 C40         68.4760    46.2590    49.4150 c          1 UNL       0.256420
     58 O6          68.0160    47.2140    50.0920 o          1 UNL      -0.271077
     59 C41         69.1450    45.0220    49.8650 ca         1 UNL       0.080563
     60 H2          69.9110    43.7480    53.5380 h1         1 UNL       0.067439
     61 H3          68.6640    44.7640    54.3420 h1         1 UNL       0.067439
     62 HN          67.7250    41.5600    54.0570 hn         1 UNL       0.149408
     63 H22         65.5180    42.2480    52.3340 h1         1 UNL       0.046673
     64 H23         66.7630    41.5180    51.3260 h1         1 UNL       0.046673
     65 H32         65.0780    40.2870    53.4290 hc         1 UNL       0.028255
     66 H33         66.5660    39.5180    52.8110 hc         1 UNL       0.028255
     67 H42         65.7390    39.8080    50.4810 hc         1 UNL       0.026712
     68 H43         64.2530    40.5510    51.0930 hc         1 UNL       0.026712
     69 H52         65.1050    37.7900    51.8360 hc         1 UNL       0.026655
     70 H53         63.5130    38.5430    52.0150 hc         1 UNL       0.026655
     71 H62         64.8420    37.8530    49.3670 hc         1 UNL       0.026655
     72 H63         63.2130    38.5340    49.5780 hc         1 UNL       0.026655
     73 H72         62.3910    36.5580    50.5820 hc         1 UNL       0.026712
     74 H73         64.0270    35.9450    50.9190 hc         1 UNL       0.026712
     75 H82         62.7180    36.2570    48.2000 hc         1 UNL       0.028255
     76 H83         64.4130    35.7850    48.4560 hc         1 UNL       0.028255
     77 H92         61.8940    34.3110    49.2100 h1         1 UNL       0.046672
     78 H93         63.4310    33.9400    49.9910 h1         1 UNL       0.046672
     79 H1          63.7770    32.8920    48.7620 hn         1 UNL       0.149322
     80 H112        65.0640    31.1900    46.3870 hc         1 UNL       0.039176
     81 H113        64.0020    30.4920    47.6470 hc         1 UNL       0.039176
     82 H12         64.9940    32.1110    49.3630 h1         1 UNL       0.064028
     83 H20         66.3380    35.0680    46.3800 ha         1 UNL       0.063039
     84 H21         67.4580    37.0090    45.3530 ha         1 UNL       0.063868
     85 H231        70.1850    37.1880    48.6020 ha         1 UNL       0.063868
     86 H24         69.0740    35.2560    49.6560 ha         1 UNL       0.063039
     87 H30         70.0800    42.8580    52.2720 ha         1 UNL       0.065072
     88 H31         70.7190    41.5220    50.2390 ha         1 UNL       0.062394
     89 H321        70.3250    42.4400    47.9460 ha         1 UNL       0.063130
     90 H35         67.9540    46.8210    45.8750 h1         1 UNL       0.061307
     91 HN7         67.5990    50.5660    47.3450 hn         1 UNL       0.158624
     92 H382        64.4770    47.9670    46.6430 hc         1 UNL       0.036554
     93 H383        65.7830    47.4640    45.5400 hc         1 UNL       0.036554
     94 H392        66.2280    47.7330    48.5730 hc         1 UNL       0.029619
     95 H393        65.7870    46.1870    47.7630 hc         1 UNL       0.029619
     96 H271        68.0230    33.7080    54.5090 hc         1 UNL       0.028527
     97 H272        68.5100    35.2190    53.7050 hc         1 UNL       0.028527
     98 H273        66.7870    34.8850    54.0030 hc         1 UNL       0.028527
     99 H151        70.2200    28.8980    49.9850 hc         1 UNL       0.031046
    100 H152        70.2020    30.5780    50.5730 hc         1 UNL       0.031046
    101 H153        69.2870    29.3210    51.4410 hc         1 UNL       0.031046
    102 H281        66.3700    36.1050    51.9140 hc         1 UNL       0.028020
    103 H282        67.9430    36.4020    51.1350 hc         1 UNL       0.028020
    104 H283        66.5090    36.0510    50.1410 hc         1 UNL       0.028020
@<TRIPOS>BOND
     1     1     2 1   
     2     1    41 1   
     3     2     3 1   
     4     2    60 1   
     5     2    61 1   
     6     3     4 2   
     7     3     5 1   
     8     5     6 1   
     9     5    62 1   
    10     6     7 1   
    11     6    63 1   
    12     6    64 1   
    13     7     8 1   
    14     7    65 1   
    15     7    66 1   
    16     8     9 1   
    17     8    67 1   
    18     8    68 1   
    19     9    10 1   
    20     9    69 1   
    21     9    70 1   
    22    10    11 1   
    23    10    71 1   
    24    10    72 1   
    25    11    12 1   
    26    11    73 1   
    27    11    74 1   
    28    12    13 1   
    29    12    75 1   
    30    12    76 1   
    31    13    14 1   
    32    13    77 1   
    33    13    78 1   
    34    14    15 1   
    35    14    79 1   
    36    15    16 2   
    37    15    17 1   
    38    17    18 1   
    39    17    80 1   
    40    17    81 1   
    41    18    19 1   
    42    18    28 1   
    43    18    82 1   
    44    19    20 2   
    45    19    24 1   
    46    20    21 1   
    47    21    22 2   
    48    22    23 1   
    49    22    24 1   
    50    23    99 1   
    51    23   100 1   
    52    23   101 1   
    53    24    25 1   
    54    25    26 2   
    55    25    39 1   
    56    26    27 1   
    57    26    36 1   
    58    27    28 2   
    59    27    29 1   
    60    29    30 ar  
    61    29    34 ar  
    62    30    31 ar  
    63    30    83 1   
    64    31    32 ar  
    65    31    84 1   
    66    32    33 ar  
    67    32    35 1   
    68    33    34 ar  
    69    33    85 1   
    70    34    86 1   
    71    36    37 2   
    72    36    40 1   
    73    37    38 1   
    74    37    39 1   
    75    38    96 1   
    76    38    97 1   
    77    38    98 1   
    78    40   102 1   
    79    40   103 1   
    80    40   104 1   
    81    41    42 ar  
    82    41    59 ar  
    83    42    43 ar  
    84    42    87 1   
    85    43    44 ar  
    86    43    88 1   
    87    44    45 ar  
    88    44    89 1   
    89    45    46 1   
    90    45    59 ar  
    91    46    47 2   
    92    46    48 1   
    93    48    49 1   
    94    48    57 1   
    95    49    50 1   
    96    49    56 1   
    97    49    90 1   
    98    50    51 2   
    99    50    52 1   
   100    52    53 1   
   101    52    91 1   
   102    53    54 2   
   103    53    55 1   
   104    55    56 1   
   105    55    92 1   
   106    55    93 1   
   107    56    94 1   
   108    56    95 1   
   109    57    58 2   
   110    57    59 1   
@<TRIPOS>SUBSTRUCTURE
     1 UNL         1 TEMP              0 ****  ****    0 ROOT
