@<TRIPOS>MOLECULE
RN6
  104   110     1     0     0
SMALL
bcc


@<TRIPOS>ATOM
      1 O           80.2530    45.1020    47.7630 os       513 RN6      -0.301900
      2 C15         79.7340    43.0330    48.2920 c3       513 RN6       0.045400
      3 C16         79.4100    45.6970    48.6630 ca       513 RN6       0.182100
      4 C17         79.4400    45.4170    50.0210 ca       513 RN6      -0.180000
      5 C18         78.5160    46.0080    50.8650 ca       513 RN6      -0.079000
      6 C19         77.5630    46.8760    50.3640 ca       513 RN6      -0.090000
      7 C20         77.5470    47.1520    49.0000 ca       513 RN6      -0.103600
      8 C21         76.6320    48.0200    48.2210 c        513 RN6       0.731100
      9 C22         76.3970    48.5910    45.7650 c3       513 RN6       0.059700
     10 C23         76.0280    50.0290    46.0800 c        513 RN6       0.683500
     11 C24         74.0750    49.8930    44.6020 c        513 RN6       0.703500
     12 C25         74.4270    48.4790    44.2570 c3       513 RN6      -0.153400
     13 C26         75.1740    47.7670    45.3740 c3       513 RN6      -0.097400
     14 C27         78.4610    46.5860    48.1290 ca       513 RN6      -0.171600
     15 C28         78.1680    47.0840    46.7590 c        513 RN6       0.745100
     16 N4          77.0580    47.9300    46.8900 n        513 RN6      -0.520400
     17 N5          74.9040    50.5440    45.4780 ns       513 RN6      -0.595500
     18 O1          73.0910    50.4640    44.1370 o        513 RN6      -0.602500
     19 O2          76.7130    50.7150    46.8310 o        513 RN6      -0.595500
     20 O3          75.6830    48.6780    48.6100 o        513 RN6      -0.566500
     21 O4          78.7450    46.8470    45.7150 o        513 RN6      -0.556500
     22 H152        80.1280    42.5270    47.4020 h1       513 RN6       0.095700
     23 H153        80.5310    42.8830    49.0330 h1       513 RN6       0.095700
     24 H17         80.1820    44.7400    50.4180 ha       513 RN6       0.169000
     25 H18         78.5400    45.7900    51.9230 ha       513 RN6       0.151000
     26 H19         76.8400    47.3330    51.0230 ha       513 RN6       0.164000
     27 H22         77.0870    48.5950    44.9210 h1       513 RN6       0.108700
     28 H252        73.5070    47.9320    44.0510 hc       513 RN6       0.087700
     29 H253        75.0470    48.4780    43.3610 hc       513 RN6       0.087700
     30 H262        75.4930    46.7830    45.0300 hc       513 RN6       0.080200
     31 H263        74.5190    47.6550    46.2380 hc       513 RN6       0.080200
     32 H5          74.6650    51.4990    45.7050 hn       513 RN6       0.340500
     33 C10         78.7720    34.7270    50.8320 c3       513 RN6      -0.083400
     34 C11         78.4740    36.1460    50.6580 c3       513 RN6      -0.078400
     35 C12         78.2650    37.9320    51.4900 c3       513 RN6      -0.102400
     36 C13         78.5070    39.4680    50.7140 c3       513 RN6       0.086000
     37 C14         78.5510    41.2450    49.0410 c        513 RN6       0.625100
     38 C7          76.4570    32.2720    49.9740 c3       513 RN6      -0.104400
     39 C8          77.8980    32.5830    50.4770 c3       513 RN6      -0.085400
     40 C9          78.3010    33.8240    49.7180 c3       513 RN6      -0.080400
     41 N3          79.0080    40.8230    50.3480 ns       513 RN6      -0.554900
     42 O5          77.6690    40.7960    48.3380 o        513 RN6      -0.610100
     43 H102        78.1080    34.6560    51.6580 hc       513 RN6       0.044700
     44 H103        79.8670    34.5510    50.9390 hc       513 RN6       0.044700
     45 H112        79.2540    35.8440    49.9380 hc       513 RN6       0.042700
     46 H113        78.2600    36.2630    49.5860 hc       513 RN6       0.042700
     47 H122        78.9520    38.5820    51.9400 hc       513 RN6       0.048200
     48 H123        77.6880    37.9770    52.4000 hc       513 RN6       0.048200
     49 H132        77.8200    40.1970    51.0090 h1       513 RN6       0.062200
     50 H133        78.3520    39.1030    49.6770 h1       513 RN6       0.062200
     51 H72         75.7520    33.0970    49.8710 hc       513 RN6       0.048700
     52 H73         76.7150    32.2020    48.9070 hc       513 RN6       0.048700
     53 H82         77.8310    32.7790    51.5610 hc       513 RN6       0.043200
     54 H83         78.6310    31.7810    50.3950 hc       513 RN6       0.043200
     55 H92         77.4540    34.2960    49.2020 hc       513 RN6       0.040200
     56 H93         79.0580    33.6090    48.9520 hc       513 RN6       0.040200
     57 HN3         79.8310    41.2050    50.7910 hn       513 RN6       0.323500
     58 N           76.7220    32.8550    57.5780 nc       513 RN6      -0.338000
     59 C           75.4010    34.6710    58.6480 c3       513 RN6      -0.123400
     60 C1          75.7280    33.7060    57.5680 cd       513 RN6       0.380800
     61 C2          75.6900    32.6030    55.6680 cd       513 RN6       0.360800
     62 C29         74.8330    34.4330    53.6010 ce       513 RN6       0.564500
     63 C3          75.2760    32.2180    54.2650 c3       513 RN6       0.114200
     64 C30         75.1530    35.6020    52.7550 ca       513 RN6      -0.134900
     65 C31         74.8930    36.8990    53.1860 ca       513 RN6      -0.094000
     66 C32         75.2230    37.9860    52.3970 ca       513 RN6      -0.133500
     67 C33         75.8170    37.7720    51.1730 ca       513 RN6       0.025400
     68 C34         76.0890    36.5000    50.7220 ca       513 RN6      -0.133500
     69 C35         75.7540    35.4180    51.5150 ca       513 RN6      -0.094000
     70 C36         73.7180    34.5670    54.5710 cc       513 RN6      -0.213900
     71 C37         73.8740    34.2040    55.8890 cd       513 RN6      -0.015300
     72 C38         71.6050    35.0640    55.4220 cd       513 RN6      -0.118400
     73 C39         70.1790    35.4990    55.5750 c3       513 RN6      -0.025800
     74 C4          75.9050    30.9250    53.7320 c3       513 RN6      -0.131400
     75 C40         72.3820    35.0500    54.3060 cc       513 RN6      -0.058300
     76 C41         71.8610    35.4410    52.9550 c3       513 RN6      -0.040800
     77 C5          75.3750    30.6010    52.3520 c        513 RN6       0.657100
     78 C6          75.6200    30.9860    49.9480 c3       513 RN6       0.083000
     79 N1          76.7000    32.1520    56.3760 nc       513 RN6      -0.328000
     80 N2          75.9720    31.2280    51.3400 ns       513 RN6      -0.556900
     81 N6          75.5520    33.3890    53.4210 n2       513 RN6      -0.594900
     82 N7          75.0320    33.5840    56.3820 na       513 RN6      -0.239800
     83 O6          74.4490    29.8110    52.1910 o        513 RN6      -0.619100
     84 S           72.4510    34.4740    56.8220 ss       513 RN6       0.063200
     85 CL          76.2300    39.1370    50.1740 cl       513 RN6      -0.081400
     86 H1          76.2720    34.8080    59.2890 hc       513 RN6       0.065700
     87 H2          74.5710    34.2860    59.2400 hc       513 RN6       0.065700
     88 H3          75.1200    35.6280    58.2080 hc       513 RN6       0.065700
     89 H31         74.1960    32.0730    54.2740 h1       513 RN6       0.084700
     90 H311        74.4280    37.0590    54.1480 ha       513 RN6       0.148500
     91 H32         75.0170    38.9900    52.7370 ha       513 RN6       0.152000
     92 H34         76.5580    36.3490    49.7610 ha       513 RN6       0.152000
     93 H35         75.9620    34.4170    51.1670 ha       513 RN6       0.148500
     94 H391        69.8790    35.4020    56.6180 hc       513 RN6       0.054033
     95 H392        69.5400    34.8720    54.9530 hc       513 RN6       0.054033
     96 H393        70.0810    36.5390    55.2640 hc       513 RN6       0.054033
     97 H42         75.6650    30.1050    54.4090 hc       513 RN6       0.092700
     98 H43         76.9870    31.0450    53.6830 hc       513 RN6       0.092700
     99 H411        72.6520    35.3290    52.2140 hc       513 RN6       0.054700
    100 H412        71.5310    36.4800    52.9800 hc       513 RN6       0.054700
    101 H413        71.0210    34.7990    52.6900 hc       513 RN6       0.054700
    102 H62         76.1190    30.1010    49.5310 h1       513 RN6       0.061700
    103 H63         74.5530    31.1200    49.7260 h1       513 RN6       0.061700
    104 H21         76.6980    31.8990    51.5460 hn       513 RN6       0.318500
@<TRIPOS>BOND
     1     1     2 1   
     2     1     3 1   
     3     2    22 1   
     4     2    23 1   
     5     2    37 1   
     6     3     4 ar  
     7     3    14 ar  
     8     4     5 ar  
     9     4    24 1   
    10     5     6 ar  
    11     5    25 1   
    12     6     7 ar  
    13     6    26 1   
    14     7     8 1   
    15     7    14 ar  
    16     8    16 1   
    17     8    20 2   
    18     9    10 1   
    19     9    13 1   
    20     9    16 1   
    21     9    27 1   
    22    10    17 1   
    23    10    19 2   
    24    11    12 1   
    25    11    17 1   
    26    11    18 2   
    27    12    13 1   
    28    12    28 1   
    29    12    29 1   
    30    13    30 1   
    31    13    31 1   
    32    14    15 1   
    33    15    16 1   
    34    15    21 2   
    35    17    32 1   
    36    33    34 1   
    37    33    40 1   
    38    33    43 1   
    39    33    44 1   
    40    34    35 1   
    41    34    45 1   
    42    34    46 1   
    43    35    36 1   
    44    35    47 1   
    45    35    48 1   
    46    36    41 1   
    47    36    49 1   
    48    36    50 1   
    49    37    41 1   
    50    37    42 2   
    51    38    39 1   
    52    38    51 1   
    53    38    52 1   
    54    38    78 1   
    55    39    40 1   
    56    39    53 1   
    57    39    54 1   
    58    40    55 1   
    59    40    56 1   
    60    41    57 1   
    61    58    60 2   
    62    58    79 1   
    63    59    60 1   
    64    59    86 1   
    65    59    87 1   
    66    59    88 1   
    67    60    82 1   
    68    61    63 1   
    69    61    79 2   
    70    61    82 1   
    71    62    64 1   
    72    62    70 1   
    73    62    81 2   
    74    63    74 1   
    75    63    81 1   
    76    63    89 1   
    77    64    65 ar  
    78    64    69 ar  
    79    65    66 ar  
    80    65    90 1   
    81    66    67 ar  
    82    66    91 1   
    83    67    68 ar  
    84    67    85 1   
    85    68    69 ar  
    86    68    92 1   
    87    69    93 1   
    88    70    71 2   
    89    70    75 1   
    90    71    82 1   
    91    71    84 1   
    92    72    73 1   
    93    72    75 2   
    94    72    84 1   
    95    73    94 1   
    96    73    95 1   
    97    73    96 1   
    98    74    77 1   
    99    74    97 1   
   100    74    98 1   
   101    75    76 1   
   102    76    99 1   
   103    76   100 1   
   104    76   101 1   
   105    77    80 1   
   106    77    83 2   
   107    78    80 1   
   108    78   102 1   
   109    78   103 1   
   110    80   104 1   
@<TRIPOS>SUBSTRUCTURE
     1 RN6         1 TEMP              0 ****  ****    0 ROOT
