@<TRIPOS>MOLECULE
759
  129   135     1     0     0
SMALL
bcc


@<TRIPOS>ATOM
      1 CAA         12.1420   -15.1650    -4.3620 c3       301 759      -0.129400
      2 CBZ         12.9200   -14.1230    -5.1730 cc       301 759       0.356600
      3 NBI         12.8170   -12.8260    -4.8350 nc       301 759      -0.627000
      4 CAV         13.5180   -11.9860    -5.6030 cd       301 759       0.367300
      5 SBR         14.3100   -12.8860    -6.7580 ss       301 759      -0.093300
      6 CCH         13.7110   -14.3820    -6.2370 cd       301 759      -0.144400
      7 CCF         13.9730   -15.5980    -6.7680 ca       301 759      -0.005000
      8 CAU         15.2760   -15.9790    -7.0910 ca       301 759      -0.120000
      9 CAQ         15.5560   -17.2480    -7.6260 ca       301 759      -0.115500
     10 CAT         12.9510   -16.5320    -7.0070 ca       301 759      -0.120000
     11 CAP         13.2300   -17.7900    -7.5410 ca       301 759      -0.115500
     12 CCA         14.5340   -18.1770    -7.8590 ca       301 759      -0.115300
     13 CBC         14.7410   -19.4810    -8.4090 c3       301 759       0.131300
     14 NBM         16.0680   -19.5620    -9.0260 ns       301 759      -0.552900
     15 C           16.2230   -19.4330   -10.3660 c        301 759       0.651100
     16 O           15.2850   -19.2090   -11.1220 o        301 759      -0.620100
     17 CA          17.5420   -19.4480   -10.8700 c3       301 759       0.027700
     18 CB          18.0660   -18.0050   -10.8990 c3       301 759      -0.088400
     19 CG          18.9070   -17.8860   -12.1280 c3       301 759       0.133100
     20 OD1         20.2380   -18.3280   -11.8170 oh       301 759      -0.596800
     21 CD2         18.2130   -18.8080   -13.1380 c3       301 759       0.035000
     22 N           17.6780   -19.9350   -12.3100 n        301 759      -0.446800
     23 CBW         17.3820   -21.2210   -12.6030 c        301 759       0.651100
     24 OAK         16.9900   -21.9920   -11.7340 o        301 759      -0.628100
     25 CCN         17.5850   -21.7450   -14.0540 c3       301 759       0.052700
     26 CCQ         16.2660   -21.8270   -14.8730 c3       301 759      -0.052000
     27 CAF         16.5750   -22.3270   -16.2900 c3       301 759      -0.097767
     28 CAG         15.2450   -22.8230   -14.2600 c3       301 759      -0.097767
     29 CAE         15.6330   -20.4290   -14.9810 c3       301 759      -0.097767
     30 NBN         18.2030   -23.0740   -13.8890 ns       301 759      -0.551900
     31 CBT         19.4650   -23.3710   -14.2560 c        301 759       0.635100
     32 OAH         20.2170   -22.6180   -14.8630 o        301 759      -0.640100
     33 CBD         20.0100   -24.6400   -13.5840 c3       301 759       0.048400
     34 OBQ         19.4220   -25.8580   -14.0920 os       301 759      -0.415600
     35 CBB         19.8100   -26.2710   -15.4220 c3       301 759       0.085400
     36 CBA         18.8340   -25.7010   -16.4730 c3       301 759       0.097400
     37 OBP         19.1410   -26.2970   -17.7460 os       301 759      -0.421600
     38 CAZ         20.1680   -25.6550   -18.5270 c3       301 759       0.111400
     39 CAY         20.4380   -26.5380   -19.7620 c3       301 759       0.100400
     40 OBO         21.4920   -27.4700   -19.4370 os       301 759      -0.434600
     41 CAX         21.3320   -28.7930   -19.9790 c3       301 759       0.101400
     42 CAW         20.4280   -29.6020   -19.0250 c3       301 759       0.051000
     43 NBL         20.9380   -30.9650   -18.8050 ns       301 759      -0.551900
     44 CBU         20.9000   -31.5970   -17.5750 c        301 759       0.658100
     45 OAI         20.5370   -31.0540   -16.5290 o        301 759      -0.611100
     46 CBE         21.2890   -33.1030   -17.5870 c3       301 759      -0.132400
     47 CCL         21.5820   -33.6400   -16.1750 c3       301 759       0.115200
     48 NBH         22.8600   -33.0970   -15.6750 n2       301 759      -0.601900
     49 CCG         21.6820   -35.0520   -16.0730 cc       301 759       0.358800
     50 NBK         21.5110   -35.9100   -17.0840 nd       301 759      -0.329000
     51 NBJ         21.6650   -37.0860   -16.6590 nd       301 759      -0.337000
     52 CCB         21.9400   -37.0280   -15.3580 cc       301 759       0.380800
     53 CAB         22.1820   -38.2400   -14.4610 c3       301 759      -0.124400
     54 NCP         21.9700   -35.7620   -14.9740 na       301 759      -0.238800
     55 CCJ         22.1800   -35.2040   -13.7750 cc       301 759      -0.015300
     56 SBS         21.5840   -35.8540   -12.2890 ss       301 759       0.066200
     57 CCC         22.1870   -34.6300   -11.3970 cc       301 759      -0.117400
     58 CAC         22.0460   -34.5230    -9.8720 c3       301 759      -0.026800
     59 CCD         22.8150   -33.7430   -12.1920 cd       301 759      -0.057300
     60 CAD         23.4740   -32.4950   -11.5820 c3       301 759      -0.041800
     61 CCI         22.8260   -34.0530   -13.5180 cd       301 759      -0.214900
     62 CBX         23.4020   -33.2950   -14.4710 cf       301 759       0.567500
     63 CCE         24.6430   -32.6870   -14.2910 ca       301 759      -0.133900
     64 CAR         25.7300   -33.3770   -13.7560 ca       301 759      -0.095500
     65 CAN         26.9620   -32.7390   -13.5830 ca       301 759      -0.129500
     66 CBY         27.1250   -31.4080   -13.9500 ca       301 759       0.026400
     67 CL1         28.6800   -30.5780   -13.7290 cl       301 759      -0.085400
     68 CAO         26.0410   -30.7300   -14.4950 ca       301 759      -0.129500
     69 CAS         24.8110   -31.3620   -14.6650 ca       301 759      -0.095500
     70 HAA1        11.8310   -14.7290    -3.4120 hc       301 759       0.054700
     71 HAA2        11.2610   -15.4790    -4.9220 hc       301 759       0.054700
     72 HAA3        12.7790   -16.0290    -4.1740 hc       301 759       0.054700
     73 HAV         13.5630   -10.9130    -5.4930 h5       301 759       0.054100
     74 HAU         16.0860   -15.2840    -6.9260 ha       301 759       0.138500
     75 HAQ         16.5770   -17.5110    -7.8610 ha       301 759       0.145500
     76 HAT         11.9300   -16.2720    -6.7730 ha       301 759       0.138500
     77 HAP         12.4190   -18.4810    -7.7130 ha       301 759       0.145500
     78 HA          18.1750   -20.0520   -10.2200 h1       301 759       0.087700
     79 HB2         18.6650   -17.8030   -10.0110 hc       301 759       0.089200
     80 HB3         17.2300   -17.3070   -10.9500 hc       301 759       0.089200
     81 HG          18.9180   -16.8580   -12.4900 h1       301 759       0.054700
     82 HD1         20.7900   -18.2570   -12.6000 ho       301 759       0.408000
     83 HD22        18.9250   -19.1770   -13.8770 h1       301 759       0.071700
     84 HD23        17.3960   -18.2810   -13.6320 h1       301 759       0.071700
     85 HCN         18.2840   -21.0900   -14.5740 h1       301 759       0.094700
     86 HAF1        16.0320   -21.7210   -17.0150 hc       301 759       0.044256
     87 HAF2        17.6460   -22.2450   -16.4780 hc       301 759       0.044256
     88 HAF3        16.2680   -23.3680   -16.3830 hc       301 759       0.044256
     89 HAG1        14.9930   -22.5080   -13.2470 hc       301 759       0.044256
     90 HAG2        15.6820   -23.8210   -14.2320 hc       301 759       0.044256
     91 HAG3        14.3420   -22.8390   -14.8700 hc       301 759       0.044256
     92 HAE1        15.4040   -20.0540   -13.9840 hc       301 759       0.044256
     93 HAE2        14.7140   -20.4910   -15.5650 hc       301 759       0.044256
     94 HAE3        16.3310   -19.7510   -15.4730 hc       301 759       0.044256
     95 HBN         17.6450   -23.8080   -13.4760 hn       301 759       0.338500
     96 HBD2        19.7900   -24.5580   -12.5120 h1       301 759       0.093200
     97 HBD3        21.1010   -24.6580   -13.7020 h1       301 759       0.093200
     98 HBB2        20.8400   -25.9700   -15.6490 h1       301 759       0.075200
     99 HBB3        19.7560   -27.3660   -15.4810 h1       301 759       0.075200
    100 HBA2        17.8110   -25.9760   -16.1860 h1       301 759       0.057200
    101 HBA3        18.8950   -24.6080   -16.5290 h1       301 759       0.057200
    102 HAZ2        19.8210   -24.6670   -18.8550 h1       301 759       0.069200
    103 HAZ3        21.0940   -25.5310   -17.9510 h1       301 759       0.069200
    104 HAY2        20.7530   -25.9110   -20.6060 h1       301 759       0.042700
    105 HAY3        19.5100   -27.0530   -20.0460 h1       301 759       0.042700
    106 HAX2        20.9070   -28.7690   -20.9920 h1       301 759       0.049700
    107 HAX3        22.3170   -29.2670   -20.0360 h1       301 759       0.049700
    108 HAW2        19.4160   -29.6600   -19.4470 h1       301 759       0.069700
    109 HAW3        20.3570   -29.0780   -18.0620 h1       301 759       0.069700
    110 HBL         21.1560   -31.5290   -19.6190 hn       301 759       0.318500
    111 HBE2        20.4660   -33.6740   -18.0160 hc       301 759       0.093200
    112 HBE3        22.1750   -33.2360   -18.2080 hc       301 759       0.093200
    113 HCL         20.7860   -33.3050   -15.5100 h1       301 759       0.084700
    114 HAB1        22.3950   -39.1130   -15.0780 hc       301 759       0.066700
    115 HAB2        23.0300   -38.0430   -13.8050 hc       301 759       0.066700
    116 HAB3        21.2940   -38.4290   -13.8590 hc       301 759       0.066700
    117 HAC1        21.4880   -35.3810    -9.4970 hc       301 759       0.054700
    118 HAC2        23.0360   -34.5060    -9.4160 hc       301 759       0.054700
    119 HAC3        21.5140   -33.6060    -9.6200 hc       301 759       0.054700
    120 HAD1        23.0990   -32.3430   -10.5700 hc       301 759       0.055033
    121 HAD2        24.5550   -32.6330   -11.5510 hc       301 759       0.055033
    122 HAD3        23.2360   -31.6240   -12.1920 hc       301 759       0.055033
    123 HAR         25.6190   -34.4130   -13.4730 ha       301 759       0.146500
    124 HAN         27.7930   -33.2840   -13.1610 ha       301 759       0.152000
    125 HAO         26.1540   -29.6980   -14.7910 ha       301 759       0.152000
    126 HAS         23.9820   -30.8160   -15.0910 ha       301 759       0.146500
    127 HBC2        14.6670   -20.2230    -7.6140 h1       301 759       0.066700
    128 HBC3        13.9790   -19.6810    -9.1620 h1       301 759       0.066700
    129 HBM         16.8790   -19.7160    -8.4440 hn       301 759       0.334500
@<TRIPOS>BOND
     1     1     2 1   
     2     1    70 1   
     3     1    71 1   
     4     1    72 1   
     5     2     3 1   
     6     2     6 2   
     7     3     4 2   
     8     4     5 1   
     9     4    73 1   
    10     5     6 1   
    11     6     7 1   
    12     7     8 ar  
    13     7    10 ar  
    14     8     9 ar  
    15     8    74 1   
    16     9    12 ar  
    17     9    75 1   
    18    10    11 ar  
    19    10    76 1   
    20    11    12 ar  
    21    11    77 1   
    22    12    13 1   
    23    13    14 1   
    24    13   127 1   
    25    13   128 1   
    26    14    15 1   
    27    14   129 1   
    28    15    16 2   
    29    15    17 1   
    30    17    18 1   
    31    17    22 1   
    32    17    78 1   
    33    18    19 1   
    34    18    79 1   
    35    18    80 1   
    36    19    20 1   
    37    19    21 1   
    38    19    81 1   
    39    20    82 1   
    40    21    22 1   
    41    21    83 1   
    42    21    84 1   
    43    22    23 1   
    44    23    24 2   
    45    23    25 1   
    46    25    26 1   
    47    25    30 1   
    48    25    85 1   
    49    26    27 1   
    50    26    28 1   
    51    26    29 1   
    52    27    86 1   
    53    27    87 1   
    54    27    88 1   
    55    28    89 1   
    56    28    90 1   
    57    28    91 1   
    58    29    92 1   
    59    29    93 1   
    60    29    94 1   
    61    30    31 1   
    62    30    95 1   
    63    31    32 2   
    64    31    33 1   
    65    33    34 1   
    66    33    96 1   
    67    33    97 1   
    68    34    35 1   
    69    35    36 1   
    70    35    98 1   
    71    35    99 1   
    72    36    37 1   
    73    36   100 1   
    74    36   101 1   
    75    37    38 1   
    76    38    39 1   
    77    38   102 1   
    78    38   103 1   
    79    39    40 1   
    80    39   104 1   
    81    39   105 1   
    82    40    41 1   
    83    41    42 1   
    84    41   106 1   
    85    41   107 1   
    86    42    43 1   
    87    42   108 1   
    88    42   109 1   
    89    43    44 1   
    90    43   110 1   
    91    44    45 2   
    92    44    46 1   
    93    46    47 1   
    94    46   111 1   
    95    46   112 1   
    96    47    48 1   
    97    47    49 1   
    98    47   113 1   
    99    48    62 2   
   100    49    50 2   
   101    49    54 1   
   102    50    51 1   
   103    51    52 2   
   104    52    53 1   
   105    52    54 1   
   106    53   114 1   
   107    53   115 1   
   108    53   116 1   
   109    54    55 1   
   110    55    56 1   
   111    55    61 2   
   112    56    57 1   
   113    57    58 1   
   114    57    59 2   
   115    58   117 1   
   116    58   118 1   
   117    58   119 1   
   118    59    60 1   
   119    59    61 1   
   120    60   120 1   
   121    60   121 1   
   122    60   122 1   
   123    61    62 1   
   124    62    63 1   
   125    63    64 ar  
   126    63    69 ar  
   127    64    65 ar  
   128    64   123 1   
   129    65    66 ar  
   130    65   124 1   
   131    66    67 1   
   132    66    68 ar  
   133    68    69 ar  
   134    68   125 1   
   135    69   126 1   
@<TRIPOS>SUBSTRUCTURE
     1 759         1 TEMP              0 ****  ****    0 ROOT
