@<TRIPOS>MOLECULE
UNL
  104   110     1     0     0
SMALL
gas


@<TRIPOS>ATOM
      1 O           70.2000    42.3130    47.6380 os         1 UNL      -0.335670
      2 C           70.6630    41.1070    47.2920 c3         1 UNL       0.129859
      3 C1          70.5580    40.9120    45.7800 c          1 UNL       0.238195
      4 O1          71.0220    41.7860    45.0360 o          1 UNL      -0.275031
      5 N           69.9350    39.7820    45.2360 ns         1 UNL      -0.313412
      6 C2          69.7100    39.4030    43.9040 c3         1 UNL       0.011021
      7 C3          70.8970    39.0670    43.0900 c3         1 UNL      -0.037585
      8 C4          71.5370    37.8760    43.7590 c3         1 UNL      -0.051820
      9 C5          72.6970    37.3900    42.8990 c3         1 UNL      -0.053249
     10 C6          73.3240    36.2080    43.5480 c3         1 UNL      -0.053249
     11 C7          74.4330    35.6200    42.7060 c3         1 UNL      -0.051820
     12 C8          74.9740    34.4140    43.5730 c3         1 UNL      -0.037586
     13 C9          75.4650    35.1370    44.8020 c3         1 UNL       0.010936
     14 N1          75.8810    34.3240    45.8160 ns         1 UNL      -0.315355
     15 C10         76.8050    33.3180    45.9260 c          1 UNL       0.214248
     16 O2          77.4470    32.9960    44.8860 o          1 UNL      -0.277652
     17 C11         77.0770    32.5940    47.2330 c3         1 UNL       0.053980
     18 C12         77.0970    33.6270    48.3840 c3         1 UNL       0.117349
     19 C13         77.4530    32.9880    49.7760 cc         1 UNL       0.154824
     20 N2          77.7920    31.7220    50.0350 nd         1 UNL      -0.135240
     21 N3          77.9930    31.6330    51.2820 nd         1 UNL      -0.137859
     22 C14         77.7920    32.8300    51.8610 cc         1 UNL       0.126312
     23 C15         77.9520    33.0990    53.3600 c3         1 UNL      -0.005808
     24 N4          77.4460    33.7040    50.9080 na         1 UNL      -0.233685
     25 C16         77.0980    35.0150    50.9490 cc         1 UNL       0.087987
     26 C17         77.4180    36.0000    49.9870 cd         1 UNL       0.032980
     27 C18         78.2930    35.7430    48.9040 cf         1 UNL       0.075509
     28 N5          78.1840    34.6290    48.1150 n2         1 UNL      -0.272241
     29 C19         79.3110    36.6580    48.5010 ca         1 UNL       0.000500
     30 C20         79.9610    36.5760    47.2780 ca         1 UNL      -0.051329
     31 C21         81.0150    37.4260    46.9710 ca         1 UNL      -0.042855
     32 C22         81.4580    38.3790    47.8670 ca         1 UNL       0.040590
     33 C23         80.8300    38.4760    49.0900 ca         1 UNL      -0.042855
     34 C24         79.7730    37.6310    49.4020 ca         1 UNL      -0.051329
     35 Cl          82.7690    39.4720    47.5060 cl         1 UNL      -0.084350
     36 C25         76.8060    37.2440    50.3110 cd         1 UNL      -0.029589
     37 C26         76.0550    37.2190    51.4770 cc         1 UNL      -0.008353
     38 C27         75.2880    38.4120    52.1020 c3         1 UNL      -0.033021
     39 S           76.0840    35.6530    52.1940 ss         1 UNL      -0.077704
     40 C28         76.9130    38.5000    49.4370 c3         1 UNL      -0.038218
     41 C29         70.0090    42.9760    48.7510 ca         1 UNL       0.088968
     42 C30         70.3360    42.4900    50.0520 ca         1 UNL      -0.030904
     43 C31         70.0800    43.2780    51.2200 ca         1 UNL      -0.058828
     44 C32         69.5020    44.5480    51.1310 ca         1 UNL      -0.048653
     45 C33         69.1860    45.0120    49.8260 ca         1 UNL       0.052950
     46 C34         68.5230    46.2620    49.4030 c          1 UNL       0.253852
     47 O3          68.1210    47.2280    50.0950 o          1 UNL      -0.271185
     48 N6          68.4090    46.2010    48.0850 n          1 UNL      -0.220987
     49 C35         67.7470    47.0910    46.9410 c3         1 UNL       0.111246
     50 C36         68.1640    48.5510    47.5010 c          1 UNL       0.239300
     51 O4          69.1220    48.6580    48.1240 o          1 UNL      -0.275092
     52 N7          67.2940    49.6200    47.1700 ns         1 UNL      -0.254120
     53 C37         66.0360    49.3640    46.5610 c          1 UNL       0.218183
     54 O5          65.4740    50.3260    46.0280 o          1 UNL      -0.277296
     55 C38         65.4820    47.9680    46.6040 c3         1 UNL       0.027062
     56 C39         66.2140    47.1940    47.7280 c3         1 UNL      -0.016458
     57 C40         68.9440    44.9990    47.5040 c          1 UNL       0.256420
     58 O6          69.0020    44.6480    46.3430 o          1 UNL      -0.271077
     59 C41         69.4360    44.2490    48.6910 ca         1 UNL       0.080563
     60 H2          70.0760    40.3390    47.7950 h1         1 UNL       0.067439
     61 H3          71.7060    41.0200    47.5950 h1         1 UNL       0.067439
     62 HN          69.5870    39.1260    45.9210 hn         1 UNL       0.149408
     63 H22         69.1960    40.2280    43.4100 h1         1 UNL       0.046673
     64 H23         69.0440    38.5400    43.9050 h1         1 UNL       0.046673
     65 H32         70.5990    38.8150    42.0720 hc         1 UNL       0.028255
     66 H33         71.5920    39.9070    43.0780 hc         1 UNL       0.028255
     67 H42         70.8020    37.0780    43.8660 hc         1 UNL       0.026712
     68 H43         71.9080    38.1650    44.7420 hc         1 UNL       0.026712
     69 H52         72.3270    37.1110    41.9120 hc         1 UNL       0.026655
     70 H53         73.4350    38.1860    42.8000 hc         1 UNL       0.026655
     71 H62         72.5600    35.4460    43.7050 hc         1 UNL       0.026655
     72 H63         73.7310    36.5070    44.5140 hc         1 UNL       0.026655
     73 H72         74.0470    35.2670    41.7500 hc         1 UNL       0.026712
     74 H73         75.2210    36.3570    42.5480 hc         1 UNL       0.026712
     75 H82         74.1800    33.7080    43.8150 hc         1 UNL       0.028255
     76 H83         75.7970    33.9110    43.0650 hc         1 UNL       0.028255
     77 H92         76.3020    35.7710    44.5100 h1         1 UNL       0.046672
     78 H93         74.6620    35.7730    45.1740 h1         1 UNL       0.046672
     79 H1          75.3970    34.5050    46.6840 hn         1 UNL       0.149322
     80 H112        76.2920    31.8600    47.4140 hc         1 UNL       0.039176
     81 H113        78.0420    32.0910    47.1770 hc         1 UNL       0.039176
     82 H12         76.1330    34.1330    48.4440 h1         1 UNL       0.064028
     83 H20         79.6420    35.8400    46.5540 ha         1 UNL       0.063039
     84 H21         81.4990    37.3400    46.0100 ha         1 UNL       0.063868
     85 H231        81.1610    39.2120    49.8080 ha         1 UNL       0.063868
     86 H24         79.2930    37.7250    50.3650 ha         1 UNL       0.063039
     87 H30         70.7830    41.5130    50.1580 ha         1 UNL       0.065072
     88 H31         70.3390    42.8830    52.1910 ha         1 UNL       0.062394
     89 H321        69.3060    45.1450    52.0090 ha         1 UNL       0.063130
     90 H35         67.8360    46.8320    45.8860 h1         1 UNL       0.061307
     91 HN7         67.5700    50.5710    47.3690 hn         1 UNL       0.158624
     92 H382        64.4130    48.0010    46.8140 hc         1 UNL       0.036554
     93 H383        65.6530    47.4750    45.6470 hc         1 UNL       0.036554
     94 H392        65.7740    46.2140    47.9150 hc         1 UNL       0.029619
     95 H393        66.2750    47.7840    48.6420 hc         1 UNL       0.029619
     96 H271        74.8140    38.0930    53.0300 hc         1 UNL       0.028527
     97 H272        75.9860    39.2230    52.3110 hc         1 UNL       0.028527
     98 H273        74.5250    38.7590    51.4050 hc         1 UNL       0.028527
     99 H151        78.5510    32.3070    53.8100 hc         1 UNL       0.031046
    100 H152        78.4500    34.0580    53.5060 hc         1 UNL       0.031046
    101 H153        76.9700    33.1240    53.8310 hc         1 UNL       0.031046
    102 H281        75.9300    38.9600    49.3400 hc         1 UNL       0.028020
    103 H282        77.6010    39.2070    49.9000 hc         1 UNL       0.028020
    104 H283        77.2850    38.2250    48.4500 hc         1 UNL       0.028020
@<TRIPOS>BOND
     1     1     2 1   
     2     1    41 1   
     3     2     3 1   
     4     2    60 1   
     5     2    61 1   
     6     3     4 2   
     7     3     5 1   
     8     5     6 1   
     9     5    62 1   
    10     6     7 1   
    11     6    63 1   
    12     6    64 1   
    13     7     8 1   
    14     7    65 1   
    15     7    66 1   
    16     8     9 1   
    17     8    67 1   
    18     8    68 1   
    19     9    10 1   
    20     9    69 1   
    21     9    70 1   
    22    10    11 1   
    23    10    71 1   
    24    10    72 1   
    25    11    12 1   
    26    11    73 1   
    27    11    74 1   
    28    12    13 1   
    29    12    75 1   
    30    12    76 1   
    31    13    14 1   
    32    13    77 1   
    33    13    78 1   
    34    14    15 1   
    35    14    79 1   
    36    15    16 2   
    37    15    17 1   
    38    17    18 1   
    39    17    80 1   
    40    17    81 1   
    41    18    19 1   
    42    18    28 1   
    43    18    82 1   
    44    19    20 2   
    45    19    24 1   
    46    20    21 1   
    47    21    22 2   
    48    22    23 1   
    49    22    24 1   
    50    23    99 1   
    51    23   100 1   
    52    23   101 1   
    53    24    25 1   
    54    25    26 2   
    55    25    39 1   
    56    26    27 1   
    57    26    36 1   
    58    27    28 2   
    59    27    29 1   
    60    29    30 ar  
    61    29    34 ar  
    62    30    31 ar  
    63    30    83 1   
    64    31    32 ar  
    65    31    84 1   
    66    32    33 ar  
    67    32    35 1   
    68    33    34 ar  
    69    33    85 1   
    70    34    86 1   
    71    36    37 2   
    72    36    40 1   
    73    37    38 1   
    74    37    39 1   
    75    38    96 1   
    76    38    97 1   
    77    38    98 1   
    78    40   102 1   
    79    40   103 1   
    80    40   104 1   
    81    41    42 ar  
    82    41    59 ar  
    83    42    43 ar  
    84    42    87 1   
    85    43    44 ar  
    86    43    88 1   
    87    44    45 ar  
    88    44    89 1   
    89    45    46 1   
    90    45    59 ar  
    91    46    47 2   
    92    46    48 1   
    93    48    49 1   
    94    48    57 1   
    95    49    50 1   
    96    49    56 1   
    97    49    90 1   
    98    50    51 2   
    99    50    52 1   
   100    52    53 1   
   101    52    91 1   
   102    53    54 2   
   103    53    55 1   
   104    55    56 1   
   105    55    92 1   
   106    55    93 1   
   107    56    94 1   
   108    56    95 1   
   109    57    58 2   
   110    57    59 1   
@<TRIPOS>SUBSTRUCTURE
     1 UNL         1 TEMP              0 ****  ****    0 ROOT
