@<TRIPOS>MOLECULE
4YY
  125   132     1     0     0
SMALL
bcc


@<TRIPOS>ATOM
      1 NBN         31.8830   -15.8400   -14.8670 ns       301 4YY      -0.554900
      2 CBW         29.4940   -15.5450   -15.2160 c        301 4YY       0.649100
      3 CAE         30.1190   -13.7450   -17.5380 c3       301 4YY      -0.097100
      4 CAF         32.5500   -13.8920   -16.9790 c3       301 4YY      -0.097100
      5 CAG         31.3230   -15.9300   -17.7760 c3       301 4YY      -0.097100
      6 CA          27.0960   -15.3410   -14.5180 c3       301 4YY       0.029700
      7 CD2         28.4310   -13.2860   -14.5030 c3       301 4YY       0.071000
      8 C           26.4860   -15.9080   -15.6530 c        301 4YY       0.661100
      9 CAZ         22.7940   -17.2720   -17.7710 ca       301 4YY       0.106100
     10 CAT         21.5070   -16.7480   -17.9270 ca       301 4YY      -0.152000
     11 CCF         20.9040   -15.9690   -16.9290 ca       301 4YY       0.029000
     12 CAQ         22.9380   -16.2460   -15.6220 ca       301 4YY      -0.103000
     13 CBZ         18.5530   -16.0550   -17.5630 cc       301 4YY       0.369600
     14 CAV         17.5960   -14.0640   -17.0680 cd       301 4YY       0.379300
     15 CCN         30.8930   -14.9060   -15.4360 c3       301 4YY       0.059700
     16 CGQ         31.2080   -14.6270   -16.9300 c3       301 4YY      -0.052000
     17 N           28.4750   -14.7530   -14.7960 n        301 4YY      -0.451800
     18 OAK         29.3560   -16.7500   -15.3630 o        301 4YY      -0.628100
     19 CB          26.2430   -14.1410   -14.0820 c3       301 4YY      -0.125400
     20 CG          27.2310   -13.1210   -13.5670 c3       301 4YY       0.132100
     21 OD1         27.5830   -13.4510   -12.2120 oh       301 4YY      -0.586800
     22 O           26.6730   -15.4160   -16.7600 o        301 4YY      -0.652100
     23 NBM         25.6430   -16.9450   -15.4300 ns       301 4YY      -0.549900
     24 CBC         24.8500   -17.5980   -16.4940 c3       301 4YY       0.132300
     25 CCA         23.5360   -17.0300   -16.6190 ca       301 4YY      -0.124300
     26 CAU         21.6430   -15.7200   -15.7770 ca       301 4YY      -0.129000
     27 CCH         19.6600   -15.4590   -17.0610 cd       301 4YY      -0.172400
     28 NBI         17.4400   -15.2950   -17.5670 nc       301 4YY      -0.624000
     29 SBR         19.1820   -13.8910   -16.5950 ss       301 4YY      -0.079300
     30 CAA         18.4800   -17.4770   -18.1330 c3       301 4YY      -0.132400
     31 CBT         32.5910   -15.6350   -13.7530 c        301 4YY       0.682100
     32 CBJ         33.5560   -16.7810   -13.4110 cx       301 4YY       0.014300
     33 OAH         32.5790   -14.6140   -13.0750 o        301 4YY      -0.613100
     34 F34         33.5590   -17.7630   -14.2330 f        301 4YY      -0.199300
     35 CAO         34.9030   -16.4110   -12.7980 cx       301 4YY      -0.110400
     36 CAP         33.8410   -17.1080   -11.9630 cx       301 4YY      -0.110400
     37 O37         23.3490   -18.0580   -18.7980 os       301 4YY      -0.359900
     38 C38         23.3630   -17.5820   -20.1560 c3       301 4YY       0.132400
     39 C39         23.9940   -18.6570   -21.0700 c3       301 4YY      -0.092100
     40 C40         21.1790   -23.7670   -21.9090 c3       301 4YY       0.177100
     41 N41         20.8170   -24.5380   -20.6370 nx       301 4YY      -0.688400
     42 C42         22.0110   -24.8110   -19.7950 c3       301 4YY       0.106300
     43 C43         22.8960   -25.8280   -20.4790 c3       301 4YY       0.154300
     44 N44         22.1420   -27.0580   -20.7260 nh       301 4YY      -0.624000
     45 C45         20.9600   -26.8250   -21.5570 c3       301 4YY       0.154300
     46 C46         20.0560   -25.7860   -20.9230 c3       301 4YY       0.106300
     47 C47         22.9210   -28.2480   -20.9270 ca       301 4YY      -0.066700
     48 C48         22.9740   -28.9650   -22.1280 ca       301 4YY      -0.187300
     49 C49         23.6750   -30.1830   -22.1360 cp       301 4YY       0.377800
     50 N50         24.2560   -30.6550   -21.0210 nb       301 4YY      -0.269000
     51 N51         24.2370   -29.9340   -19.8670 nb       301 4YY      -0.328000
     52 C52         23.5880   -28.7620   -19.7860 ca       301 4YY       0.582200
     53 N53         23.5470   -28.1770   -18.5700 nv       301 4YY      -0.911500
     54 C54         23.8230   -31.0430   -23.3490 cp       301 4YY      -0.240500
     55 C55         24.6050   -32.2130   -23.3310 ca       301 4YY       0.174100
     56 C56         24.7080   -33.0250   -24.4690 ca       301 4YY      -0.156000
     57 C57         24.0430   -32.6790   -25.6310 ca       301 4YY      -0.078000
     58 C58         23.2840   -31.5250   -25.6750 ca       301 4YY      -0.164000
     59 C59         23.1730   -30.7130   -24.5480 ca       301 4YY      -0.088000
     60 O60         25.3140   -32.6180   -22.2340 oh       301 4YY      -0.491100
     61 C61         23.2260   -19.9760   -21.2150 ca       301 4YY      -0.001300
     62 C62         23.9470   -21.1400   -21.5380 ca       301 4YY      -0.121000
     63 C63         23.2850   -22.3580   -21.7600 ca       301 4YY      -0.103000
     64 C64         21.8860   -22.4390   -21.6550 ca       301 4YY      -0.202300
     65 C65         21.1580   -21.2800   -21.3300 ca       301 4YY      -0.103000
     66 C66         21.8220   -20.0570   -21.1170 ca       301 4YY      -0.121000
     67 HBN         32.0390   -16.7070   -15.3620 hn       301 4YY       0.340500
     68 HAE1        30.3160   -13.6050   -18.6010 hc       301 4YY       0.044478
     69 HAE2        30.1170   -12.7760   -17.0390 hc       301 4YY       0.044478
     70 HAE3        29.1490   -14.2230   -17.4070 hc       301 4YY       0.044478
     71 HAF1        32.3910   -12.8310   -16.7820 hc       301 4YY       0.044478
     72 HAF2        33.2180   -14.3050   -16.2230 hc       301 4YY       0.044478
     73 HAF3        32.9960   -14.0150   -17.9660 hc       301 4YY       0.044478
     74 HAG1        30.5290   -15.9500   -18.5230 hc       301 4YY       0.044478
     75 HAG2        31.2290   -16.7970   -17.1230 hc       301 4YY       0.044478
     76 HAG3        32.2920   -15.9550   -18.2760 hc       301 4YY       0.044478
     77 HA          27.1530   -16.0750   -13.7140 h1       301 4YY       0.091700
     78 HD22        29.3490   -12.9630   -14.0130 h1       301 4YY       0.082700
     79 HD23        28.2740   -12.7220   -15.4230 h1       301 4YY       0.082700
     80 HAT         20.9630   -16.9490   -18.8380 ha       301 4YY       0.149000
     81 HAQ         23.4850   -16.0420   -14.7130 ha       301 4YY       0.145000
     82 HAV         16.8250   -13.3120   -16.9860 h5       301 4YY       0.061100
     83 HCN         30.9400   -13.9660   -14.8850 h1       301 4YY       0.100700
     84 HB2         25.5480   -14.4310   -13.2950 hc       301 4YY       0.078700
     85 HB3         25.6980   -13.7380   -14.9360 hc       301 4YY       0.078700
     86 HG          26.8210   -12.1130   -13.6310 h1       301 4YY       0.047700
     87 HD1         27.3410   -12.7250   -11.6330 ho       301 4YY       0.406000
     88 HBM         25.5520   -17.2920   -14.4850 hn       301 4YY       0.338500
     89 HBC2        25.3740   -17.4820   -17.4420 h1       301 4YY       0.071200
     90 HBC3        24.7580   -18.6600   -16.2660 h1       301 4YY       0.071200
     91 HAU         21.2170   -15.1140   -14.9900 ha       301 4YY       0.148000
     92 HAA1        17.4370   -17.7800   -18.2250 hc       301 4YY       0.056700
     93 HAA2        18.9520   -17.5000   -19.1150 hc       301 4YY       0.056700
     94 HAA3        19.0000   -18.1640   -17.4650 hc       301 4YY       0.056700
     95 HAO2        35.1480   -15.3660   -12.6080 hc       301 4YY       0.097450
     96 HAO3        35.7420   -17.0380   -13.1030 hc       301 4YY       0.097450
     97 HAP2        33.9840   -18.1450   -11.6580 hc       301 4YY       0.097450
     98 HAP3        33.3330   -16.4760   -11.2360 hc       301 4YY       0.097450
     99 H382        23.9640   -16.6660   -20.2110 h1       301 4YY       0.061700
    100 H383        22.3540   -17.3380   -20.5070 h1       301 4YY       0.061700
    101 H392        25.0070   -18.8590   -20.6990 hc       301 4YY       0.092700
    102 H393        24.1270   -18.2190   -22.0670 hc       301 4YY       0.092700
    103 H402        21.8070   -24.4110   -22.5260 hx       301 4YY       0.099700
    104 H403        20.2500   -23.5870   -22.4530 hx       301 4YY       0.099700
    105 H41         20.1970   -23.9190   -20.0880 hn       301 4YY       0.451800
    106 H422        22.5690   -23.8860   -19.6470 hx       301 4YY       0.107700
    107 H423        21.6920   -25.2000   -18.8280 hx       301 4YY       0.107700
    108 H432        23.7510   -26.0500   -19.8410 h1       301 4YY       0.078950
    109 H433        23.2480   -25.4220   -21.4270 h1       301 4YY       0.078950
    110 H452        20.4100   -27.7590   -21.6660 h1       301 4YY       0.078950
    111 H453        21.2750   -26.4760   -22.5400 h1       301 4YY       0.078950
    112 H462        19.2370   -25.5580   -21.6060 hx       301 4YY       0.107700
    113 H463        19.6500   -26.1820   -19.9920 hx       301 4YY       0.107700
    114 H48         22.4920   -28.5940   -23.0200 ha       301 4YY       0.151000
    115 H531        23.0460   -27.3090   -18.4430 hn       301 4YY       0.419800
    116 H532        24.0180   -28.6070   -17.7870 hn       301 4YY       0.419800
    117 H56         25.3080   -33.9230   -24.4380 ha       301 4YY       0.162000
    118 H57         24.1170   -33.3110   -26.5040 ha       301 4YY       0.146000
    119 H58         22.7750   -31.2510   -26.5870 ha       301 4YY       0.141000
    120 H59         22.5760   -29.8140   -24.5980 ha       301 4YY       0.124000
    121 H60         25.9140   -31.9180   -21.9650 ho       301 4YY       0.438000
    122 H62         25.0280   -21.0950   -21.6400 ha       301 4YY       0.166000
    123 H63         23.8690   -23.2350   -22.0290 ha       301 4YY       0.132000
    124 H65         20.0740   -21.3140   -21.2610 ha       301 4YY       0.132000
    125 H66         21.2330   -19.1740   -20.8930 ha       301 4YY       0.166000
@<TRIPOS>BOND
     1     1    15 1   
     2     1    31 1   
     3     1    67 1   
     4     2    15 1   
     5     2    17 1   
     6     2    18 2   
     7     3    16 1   
     8     3    68 1   
     9     3    69 1   
    10     3    70 1   
    11     4    16 1   
    12     4    71 1   
    13     4    72 1   
    14     4    73 1   
    15     5    16 1   
    16     5    74 1   
    17     5    75 1   
    18     5    76 1   
    19     6     8 1   
    20     6    17 1   
    21     6    19 1   
    22     6    77 1   
    23     7    17 1   
    24     7    20 1   
    25     7    78 1   
    26     7    79 1   
    27     8    22 2   
    28     8    23 1   
    29     9    10 ar  
    30     9    25 ar  
    31     9    37 1   
    32    10    11 ar  
    33    10    80 1   
    34    11    26 ar  
    35    11    27 1   
    36    12    25 ar  
    37    12    26 ar  
    38    12    81 1   
    39    13    27 2   
    40    13    28 1   
    41    13    30 1   
    42    14    28 2   
    43    14    29 1   
    44    14    82 1   
    45    15    16 1   
    46    15    83 1   
    47    19    20 1   
    48    19    84 1   
    49    19    85 1   
    50    20    21 1   
    51    20    86 1   
    52    21    87 1   
    53    23    24 1   
    54    23    88 1   
    55    24    25 1   
    56    24    89 1   
    57    24    90 1   
    58    26    91 1   
    59    27    29 1   
    60    30    92 1   
    61    30    93 1   
    62    30    94 1   
    63    31    32 1   
    64    31    33 2   
    65    32    34 1   
    66    32    35 1   
    67    32    36 1   
    68    35    36 1   
    69    35    95 1   
    70    35    96 1   
    71    36    97 1   
    72    36    98 1   
    73    37    38 1   
    74    38    39 1   
    75    38    99 1   
    76    38   100 1   
    77    39    61 1   
    78    39   101 1   
    79    39   102 1   
    80    40    41 1   
    81    40    64 1   
    82    40   103 1   
    83    40   104 1   
    84    41    42 1   
    85    41    46 1   
    86    41   105 1   
    87    42    43 1   
    88    42   106 1   
    89    42   107 1   
    90    43    44 1   
    91    43   108 1   
    92    43   109 1   
    93    44    45 1   
    94    44    47 1   
    95    45    46 1   
    96    45   110 1   
    97    45   111 1   
    98    46   112 1   
    99    46   113 1   
   100    47    48 ar  
   101    47    52 ar  
   102    48    49 ar  
   103    48   114 1   
   104    49    50 ar  
   105    49    54 1   
   106    50    51 ar  
   107    51    52 ar  
   108    52    53 1   
   109    53   115 1   
   110    53   116 1   
   111    54    55 ar  
   112    54    59 ar  
   113    55    56 ar  
   114    55    60 1   
   115    56    57 ar  
   116    56   117 1   
   117    57    58 ar  
   118    57   118 1   
   119    58    59 ar  
   120    58   119 1   
   121    59   120 1   
   122    60   121 1   
   123    61    62 ar  
   124    61    66 ar  
   125    62    63 ar  
   126    62   122 1   
   127    63    64 ar  
   128    63   123 1   
   129    64    65 ar  
   130    65    66 ar  
   131    65   124 1   
   132    66   125 1   
@<TRIPOS>SUBSTRUCTURE
     1 4YY         1 TEMP              0 ****  ****    0 ROOT
