@<TRIPOS>MOLECULE
759
  129   135     1     0     0
SMALL
bcc


@<TRIPOS>ATOM
      1 CAA         39.4180   -17.9520   -12.9520 c3       301 759      -0.128400
      2 CBZ         38.8010   -17.2050   -11.7650 cc       301 759       0.355600
      3 NBI         39.4510   -16.1440   -11.2540 nc       301 759      -0.627000
      4 CAV         38.8480   -15.5610   -10.2130 cd       301 759       0.367300
      5 SBR         37.4390   -16.3920    -9.9050 ss       301 759      -0.090300
      6 CCH         37.6420   -17.5240   -11.1480 cd       301 759      -0.145400
      7 CCF         36.8120   -18.5420   -11.4720 ca       301 759      -0.005000
      8 CAU         35.4340   -18.3450   -11.5720 ca       301 759      -0.120000
      9 CAQ         34.5680   -19.3930   -11.9250 ca       301 759      -0.116000
     10 CAT         37.2980   -19.8330   -11.7320 ca       301 759      -0.120000
     11 CAP         36.4370   -20.8740   -12.0800 ca       301 759      -0.116000
     12 CCA         35.0590   -20.6800   -12.1880 ca       301 759      -0.115300
     13 CBC         34.2400   -21.7970   -12.5430 c3       301 759       0.131300
     14 NBM         32.8360   -21.5110   -12.2320 ns       301 759      -0.553900
     15 C           32.2620   -21.9870   -11.1010 c        301 759       0.651100
     16 O           32.8800   -22.6420   -10.2700 o        301 759      -0.619100
     17 CA          30.9280   -21.6020   -10.8400 c3       301 759       0.026700
     18 CB          30.9510   -20.3080   -10.0140 c3       301 759      -0.088400
     19 CG          29.8150   -20.4070    -9.0460 c3       301 759       0.133100
     20 OD1         28.6220   -19.9360    -9.6910 oh       301 759      -0.596800
     21 CD2         29.7430   -21.9030    -8.7170 c3       301 759       0.033000
     22 N           30.1260   -22.5860    -9.9930 n        301 759      -0.443800
     23 CBW         29.8430   -23.8090   -10.4930 c        301 759       0.644100
     24 OAK         30.2360   -24.1450   -11.6040 o        301 759      -0.636100
     25 CCN         28.9660   -24.7940    -9.6650 c3       301 759       0.053700
     26 CCQ         29.7890   -25.8870    -8.9270 c3       301 759      -0.049000
     27 CAF         28.8400   -26.7840    -8.1230 c3       301 759      -0.096433
     28 CAG         30.5620   -26.8130    -9.9040 c3       301 759      -0.096433
     29 CAE         30.7730   -25.2240    -7.9470 c3       301 759      -0.096433
     30 NBN         28.0390   -25.3870   -10.6480 ns       301 759      -0.556900
     31 CBT         26.7090   -25.1680   -10.6580 c        301 759       0.629100
     32 OAH         26.0910   -24.5470    -9.8020 o        301 759      -0.624100
     33 CBD         25.9360   -25.8440   -11.8040 c3       301 759       0.057400
     34 OBQ         24.6750   -25.1760   -12.0010 os       301 759      -0.420600
     35 CBB         23.5110   -26.0240   -11.9930 c3       301 759       0.118400
     36 CBA         23.7180   -27.2170   -12.9460 c3       301 759       0.083400
     37 OBP         24.1670   -26.7250   -14.2200 os       301 759      -0.436600
     38 CAZ         24.0010   -27.7580   -15.1740 c3       301 759       0.091400
     39 CAY         24.4910   -27.3360   -16.5690 c3       301 759       0.125400
     40 OBO         24.2000   -28.3240   -17.5940 os       301 759      -0.421600
     41 CAX         23.6390   -29.6290   -17.2780 c3       301 759       0.091400
     42 CAW         22.5810   -29.8400   -18.3300 c3       301 759       0.065000
     43 NBL         21.8930   -31.0870   -18.4130 ns       301 759      -0.543900
     44 CBU         20.9000   -31.5970   -17.5750 c        301 759       0.665100
     45 OAI         20.5370   -31.0540   -16.5290 o        301 759      -0.641100
     46 CBE         21.2890   -33.1030   -17.5870 c3       301 759      -0.134400
     47 CCL         21.5820   -33.6400   -16.1750 c3       301 759       0.110200
     48 NBH         22.8600   -33.0970   -15.6750 n2       301 759      -0.600900
     49 CCG         21.6820   -35.0520   -16.0730 cc       301 759       0.357800
     50 NBK         21.5110   -35.9100   -17.0840 nd       301 759      -0.331000
     51 NBJ         21.6650   -37.0860   -16.6590 nd       301 759      -0.337000
     52 CCB         21.9400   -37.0280   -15.3580 cc       301 759       0.378800
     53 CAB         22.1820   -38.2400   -14.4610 c3       301 759      -0.124400
     54 NCP         21.9700   -35.7620   -14.9740 na       301 759      -0.237800
     55 CCJ         22.1800   -35.2040   -13.7750 cc       301 759      -0.014300
     56 SBS         21.5840   -35.8540   -12.2890 ss       301 759       0.054200
     57 CCC         22.1870   -34.6300   -11.3970 cc       301 759      -0.115400
     58 CAC         22.0460   -34.5230    -9.8720 c3       301 759      -0.026800
     59 CCD         22.8150   -33.7430   -12.1920 cd       301 759      -0.055300
     60 CAD         23.4740   -32.4950   -11.5820 c3       301 759      -0.041800
     61 CCI         22.8260   -34.0530   -13.5180 cd       301 759      -0.208900
     62 CBX         23.4020   -33.2950   -14.4710 cf       301 759       0.568500
     63 CCE         24.6430   -32.6870   -14.2910 ca       301 759      -0.134900
     64 CAR         25.7300   -33.3770   -13.7560 ca       301 759      -0.096500
     65 CAN         26.9620   -32.7390   -13.5830 ca       301 759      -0.129000
     66 CBY         27.1250   -31.4080   -13.9500 ca       301 759       0.026400
     67 CL1         28.6800   -30.5780   -13.7290 cl       301 759      -0.085400
     68 CAO         26.0410   -30.7300   -14.4950 ca       301 759      -0.129000
     69 CAS         24.8110   -31.3620   -14.6650 ca       301 759      -0.096500
     70 HAA1        40.1780   -17.3260   -13.4210 hc       301 759       0.054033
     71 HAA2        38.6400   -18.1840   -13.6790 hc       301 759       0.054033
     72 HAA3        39.8750   -18.8780   -12.6020 hc       301 759       0.054033
     73 HAV         39.2110   -14.7020    -9.6690 h5       301 759       0.054100
     74 HAU         35.0240   -17.3660   -11.3720 ha       301 759       0.138000
     75 HAQ         33.5070   -19.2050   -11.9960 ha       301 759       0.145000
     76 HAT         38.3580   -20.0240   -11.6620 ha       301 759       0.138000
     77 HAP         36.8470   -21.8550   -12.2720 ha       301 759       0.145000
     78 HA          30.4090   -21.4250   -11.7820 h1       301 759       0.086700
     79 HB2         30.8180   -19.4440   -10.6640 hc       301 759       0.089700
     80 HB3         31.8940   -20.2280    -9.4740 hc       301 759       0.089700
     81 HG          30.0230   -19.8250    -8.1480 h1       301 759       0.055700
     82 HD1         27.8840   -19.9940    -9.0800 ho       301 759       0.410000
     83 HD22        28.7330   -22.1840    -8.4180 h1       301 759       0.073700
     84 HD23        30.4530   -22.1510    -7.9280 h1       301 759       0.073700
     85 HCN         28.3910   -24.2270    -8.9320 h1       301 759       0.098700
     86 HAF1        28.2730   -26.1760    -7.4190 hc       301 759       0.043478
     87 HAF2        29.4210   -27.5270    -7.5750 hc       301 759       0.043478
     88 HAF3        28.1540   -27.2890    -8.8030 hc       301 759       0.043478
     89 HAG1        31.2520   -26.2170   -10.5010 hc       301 759       0.043478
     90 HAG2        31.1210   -27.5560    -9.3350 hc       301 759       0.043478
     91 HAG3        29.8540   -27.3170   -10.5630 hc       301 759       0.043478
     92 HAE1        31.4580   -24.5800    -8.4980 hc       301 759       0.043478
     93 HAE2        31.3400   -25.9950    -7.4250 hc       301 759       0.043478
     94 HAE3        30.2180   -24.6280    -7.2220 hc       301 759       0.043478
     95 HBN         28.4250   -25.9930   -11.3570 hn       301 759       0.333500
     96 HBD2        26.5350   -25.8000   -12.7230 h1       301 759       0.097700
     97 HBD3        25.8280   -26.8920   -11.5040 h1       301 759       0.097700
     98 HBB2        22.6360   -25.4480   -12.3200 h1       301 759       0.065700
     99 HBB3        23.3180   -26.3980   -10.9810 h1       301 759       0.065700
    100 HBA2        22.7800   -27.7690   -13.0510 h1       301 759       0.057200
    101 HBA3        24.4380   -27.9380   -12.5380 h1       301 759       0.057200
    102 HAZ2        24.5390   -28.6370   -14.8470 h1       301 759       0.046700
    103 HAZ3        22.9480   -28.0190   -15.1890 h1       301 759       0.046700
    104 HAY2        24.0000   -26.3920   -16.8400 h1       301 759       0.061200
    105 HAY3        25.5720   -27.1580   -16.5380 h1       301 759       0.061200
    106 HAX2        24.3970   -30.4210   -17.3040 h1       301 759       0.051200
    107 HAX3        23.0680   -29.6500   -16.3510 h1       301 759       0.051200
    108 HAW2        23.0550   -29.6920   -19.3070 h1       301 759       0.070200
    109 HAW3        21.8170   -29.1000   -18.1230 h1       301 759       0.070200
    110 HBL         22.2810   -31.7630   -19.0650 hn       301 759       0.321500
    111 HBE2        20.4660   -33.6740   -18.0160 hc       301 759       0.093200
    112 HBE3        22.1750   -33.2360   -18.2080 hc       301 759       0.093200
    113 HCL         20.7860   -33.3050   -15.5100 h1       301 759       0.094700
    114 HAB1        22.3950   -39.1130   -15.0780 hc       301 759       0.066367
    115 HAB2        23.0300   -38.0430   -13.8050 hc       301 759       0.066367
    116 HAB3        21.2940   -38.4290   -13.8590 hc       301 759       0.066367
    117 HAC1        21.4880   -35.3810    -9.4970 hc       301 759       0.054700
    118 HAC2        23.0360   -34.5060    -9.4160 hc       301 759       0.054700
    119 HAC3        21.5140   -33.6060    -9.6200 hc       301 759       0.054700
    120 HAD1        23.0990   -32.3430   -10.5700 hc       301 759       0.055033
    121 HAD2        24.5550   -32.6330   -11.5510 hc       301 759       0.055033
    122 HAD3        23.2360   -31.6240   -12.1920 hc       301 759       0.055033
    123 HAR         25.6190   -34.4130   -13.4730 ha       301 759       0.147500
    124 HAN         27.7930   -33.2840   -13.1610 ha       301 759       0.152500
    125 HAO         26.1540   -29.6980   -14.7910 ha       301 759       0.152500
    126 HAS         23.9820   -30.8160   -15.0910 ha       301 759       0.147500
    127 HBC2        34.3400   -21.9920   -13.6110 h1       301 759       0.067200
    128 HBC3        34.5620   -22.6740   -11.9830 h1       301 759       0.067200
    129 HBM         32.2890   -20.9510   -12.8710 hn       301 759       0.333500
@<TRIPOS>BOND
     1     1     2 1   
     2     1    70 1   
     3     1    71 1   
     4     1    72 1   
     5     2     3 1   
     6     2     6 2   
     7     3     4 2   
     8     4     5 1   
     9     4    73 1   
    10     5     6 1   
    11     6     7 1   
    12     7     8 ar  
    13     7    10 ar  
    14     8     9 ar  
    15     8    74 1   
    16     9    12 ar  
    17     9    75 1   
    18    10    11 ar  
    19    10    76 1   
    20    11    12 ar  
    21    11    77 1   
    22    12    13 1   
    23    13    14 1   
    24    13   127 1   
    25    13   128 1   
    26    14    15 1   
    27    14   129 1   
    28    15    16 2   
    29    15    17 1   
    30    17    18 1   
    31    17    22 1   
    32    17    78 1   
    33    18    19 1   
    34    18    79 1   
    35    18    80 1   
    36    19    20 1   
    37    19    21 1   
    38    19    81 1   
    39    20    82 1   
    40    21    22 1   
    41    21    83 1   
    42    21    84 1   
    43    22    23 1   
    44    23    24 2   
    45    23    25 1   
    46    25    26 1   
    47    25    30 1   
    48    25    85 1   
    49    26    27 1   
    50    26    28 1   
    51    26    29 1   
    52    27    86 1   
    53    27    87 1   
    54    27    88 1   
    55    28    89 1   
    56    28    90 1   
    57    28    91 1   
    58    29    92 1   
    59    29    93 1   
    60    29    94 1   
    61    30    31 1   
    62    30    95 1   
    63    31    32 2   
    64    31    33 1   
    65    33    34 1   
    66    33    96 1   
    67    33    97 1   
    68    34    35 1   
    69    35    36 1   
    70    35    98 1   
    71    35    99 1   
    72    36    37 1   
    73    36   100 1   
    74    36   101 1   
    75    37    38 1   
    76    38    39 1   
    77    38   102 1   
    78    38   103 1   
    79    39    40 1   
    80    39   104 1   
    81    39   105 1   
    82    40    41 1   
    83    41    42 1   
    84    41   106 1   
    85    41   107 1   
    86    42    43 1   
    87    42   108 1   
    88    42   109 1   
    89    43    44 1   
    90    43   110 1   
    91    44    45 2   
    92    44    46 1   
    93    46    47 1   
    94    46   111 1   
    95    46   112 1   
    96    47    48 1   
    97    47    49 1   
    98    47   113 1   
    99    48    62 2   
   100    49    50 2   
   101    49    54 1   
   102    50    51 1   
   103    51    52 2   
   104    52    53 1   
   105    52    54 1   
   106    53   114 1   
   107    53   115 1   
   108    53   116 1   
   109    54    55 1   
   110    55    56 1   
   111    55    61 2   
   112    56    57 1   
   113    57    58 1   
   114    57    59 2   
   115    58   117 1   
   116    58   118 1   
   117    58   119 1   
   118    59    60 1   
   119    59    61 1   
   120    60   120 1   
   121    60   121 1   
   122    60   122 1   
   123    61    62 1   
   124    62    63 1   
   125    63    64 ar  
   126    63    69 ar  
   127    64    65 ar  
   128    64   123 1   
   129    65    66 ar  
   130    65   124 1   
   131    66    67 1   
   132    66    68 ar  
   133    68    69 ar  
   134    68   125 1   
   135    69   126 1   
@<TRIPOS>SUBSTRUCTURE
     1 759         1 TEMP              0 ****  ****    0 ROOT
